$# LS-DYNA Keyword file created by LS-PrePost(R) 
$# Created on
*KEYWORD
*CONTROL_IMPLICIT_EIGENVALUE
        20       0.0         0       0.0         0       0.0         2       0.0
         0         0         0         0         1         0     0.001
*CONTROL_IMPLICIT_GENERAL
         15.00000E-4         2         0         2         0         0         0
*CONTROL_OUTPUT
         0         0         0         0       0.0         0       100      5000
         0         0         2        50         0       0.0         0         0
         2         0         1         0         0         0      10.0
         0         0         0         0         0         0
*CONTROL_SOLID
         1         0         4         1         0       0.0         0         0
       0       0       0       0       0       0       0       0       0       0
*PART
Part_for_NURB_3D
         1         1         1         0         0         0         0         0
*SECTION_SOLID
         1       201         0
*MAT_PLASTIC_KINEMATIC
         1       7.1       2.2       0.32.00000E-4     0.001       1.0
       0.0       0.0       0.0       0.0
*PART
Part_for_NURB_3D
         2         2         2         0         0         0         0         0
*SECTION_SOLID
         2       201         0
*MAT_PLASTIC_KINEMATIC
         2       7.1       2.2       0.32.00000E-4     0.001       1.0
       0.0       0.0       0.0       0.0
*PART
Part_for_NURB_3D
         3         3         3         0         0         0         0         0
*SECTION_SOLID
         3       201         0
*MAT_PLASTIC_KINEMATIC
         3       7.1       2.2       0.32.00000E-4     0.001       1.0
       0.0       0.0       0.0       0.0
*PART
Part_for_NURB_3D
         4         4         4         0         0         0         0         0
*SECTION_SOLID
         4       201         0
*MAT_PLASTIC_KINEMATIC
         4       7.1       2.2       0.32.00000E-4     0.001       1.0
       0.0       0.0       0.0       0.0
*PART
Part_for_NURB_3D
         5         5         5         0         0         0         0         0
*SECTION_SOLID
         5       201         0
*MAT_PLASTIC_KINEMATIC
         5       7.1       2.2       0.32.00000E-4     0.001       1.0
       0.0       0.0       0.0       0.0
*PART
Part_for_NURB_3D
         6         6         6         0         0         0         0         0
*SECTION_SOLID
         6       201         0
*MAT_PLASTIC_KINEMATIC
         6       7.1       2.2       0.32.00000E-4     0.001       1.0
       0.0       0.0       0.0       0.0
*PART
Part_for_NURB_3D
         7         7         7         0         0         0         0         0
*SECTION_SOLID
         7       201         0
*MAT_PLASTIC_KINEMATIC
         7       7.1       2.2       0.32.00000E-4     0.001       1.0
       0.0       0.0       0.0       0.0
*PART
Part_for_NURB_3D
         8         8         8         0         0         0         0         0
*SECTION_SOLID
         8       201         0
*MAT_PLASTIC_KINEMATIC
         8       7.1       2.2       0.32.00000E-4     0.001       1.0
       0.0       0.0       0.0       0.0
*PART
Part_for_NURB_3D
         9         9         9         0         0         0         0         0
*SECTION_SOLID
         9       201         0
*MAT_PLASTIC_KINEMATIC
         9       7.1       2.2       0.32.00000E-4     0.001       1.0
       0.0       0.0       0.0       0.0
*PART
Part_for_NURB_3D
        10        10        10         0         0         0         0         0
*SECTION_SOLID
        10       201         0
*MAT_PLASTIC_KINEMATIC
        10       7.1       2.2       0.32.00000E-4     0.001       1.0
       0.0       0.0       0.0       0.0
*PART
Part_for_NURB_3D
        11        11        11         0         0         0         0         0
*SECTION_SOLID
        11       201         0
*MAT_PLASTIC_KINEMATIC
        11       7.1       2.2       0.32.00000E-4     0.001       1.0
       0.0       0.0       0.0       0.0
*PART
Part_for_NURB_3D
        12        12        12         0         0         0         0         0
*SECTION_SOLID
        12       201         0
*MAT_PLASTIC_KINEMATIC
        12       7.1       2.2       0.32.00000E-4     0.001       1.0
       0.0       0.0       0.0       0.0
*PART
Part_for_NURB_3D
        13        13        13         0         0         0         0         0
*SECTION_SOLID
        13       201         0
*MAT_PLASTIC_KINEMATIC
        13       7.1       2.2       0.32.00000E-4     0.001       1.0
       0.0       0.0       0.0       0.0
*PART
Part_for_NURB_3D
        14        14        14         0         0         0         0         0
*SECTION_SOLID
        14       201         0
*MAT_PLASTIC_KINEMATIC
        14       7.1       2.2       0.32.00000E-4     0.001       1.0
       0.0       0.0       0.0       0.0
*PART
Part_for_NURB_3D
        15        15        15         0         0         0         0         0
*SECTION_SOLID
        15       201         0
*MAT_PLASTIC_KINEMATIC
        15       7.1       2.2       0.32.00000E-4     0.001       1.0
       0.0       0.0       0.0       0.0
*PART
Part_for_NURB_3D
        16        16        16         0         0         0         0         0
*SECTION_SOLID
        16       201         0
*MAT_PLASTIC_KINEMATIC
        16       7.1       2.2       0.32.00000E-4     0.001       1.0
       0.0       0.0       0.0       0.0
*PART
Part_for_NURB_3D
        17        17        17         0         0         0         0         0
*SECTION_SOLID
        17       201         0
*MAT_PLASTIC_KINEMATIC
        17       7.1       2.2       0.32.00000E-4     0.001       1.0
       0.0       0.0       0.0       0.0
*PART
Part_for_NURB_3D
        18        18        18         0         0         0         0         0
*SECTION_SOLID
        18       201         0
*MAT_PLASTIC_KINEMATIC
        18       7.1       2.2       0.32.00000E-4     0.001       1.0
       0.0       0.0       0.0       0.0
*PART
Part_for_NURB_3D
        19        19        19         0         0         0         0         0
*SECTION_SOLID
        19       201         0
*MAT_PLASTIC_KINEMATIC
        19       7.1       2.2       0.32.00000E-4     0.001       1.0
       0.0       0.0       0.0       0.0
*PART
Part_for_NURB_3D
        20        20        20         0         0         0         0         0
*SECTION_SOLID
        20       201         0
*MAT_PLASTIC_KINEMATIC
        20       7.1       2.2       0.32.00000E-4     0.001       1.0
       0.0       0.0       0.0       0.0
*PART
Part_for_NURB_3D
        21        21        21         0         0         0         0         0
*SECTION_SOLID
        21       201         0
*MAT_PLASTIC_KINEMATIC
        21       7.1       2.2       0.32.00000E-4     0.001       1.0
       0.0       0.0       0.0       0.0
*PART
Part_for_NURB_3D
        22        22        22         0         0         0         0         0
*SECTION_SOLID
        22       201         0
*MAT_PLASTIC_KINEMATIC
        22       7.1       2.2       0.32.00000E-4     0.001       1.0
       0.0       0.0       0.0       0.0
*PART
Part_for_NURB_3D
        23        23        23         0         0         0         0         0
*SECTION_SOLID
        23       201         0
*MAT_PLASTIC_KINEMATIC
        23       7.1       2.2       0.32.00000E-4     0.001       1.0
       0.0       0.0       0.0       0.0
*PART
Part_for_NURB_3D
        24        24        24         0         0         0         0         0
*SECTION_SOLID
        24       201         0
*MAT_PLASTIC_KINEMATIC
        24       7.1       2.2       0.32.00000E-4     0.001       1.0
       0.0       0.0       0.0       0.0
*PART
Part_for_NURB_3D
        25        25        25         0         0         0         0         0
*SECTION_SOLID
        25       201         0
*MAT_PLASTIC_KINEMATIC
        25       7.1       2.2       0.32.00000E-4     0.001       1.0
       0.0       0.0       0.0       0.0
*PART
Part_for_NURB_3D
        26        26        26         0         0         0         0         0
*SECTION_SOLID
        26       201         0
*MAT_PLASTIC_KINEMATIC
        26       7.1       2.2       0.32.00000E-4     0.001       1.0
       0.0       0.0       0.0       0.0
*PART
Part_for_NURB_3D
        27        27        27         0         0         0         0         0
*SECTION_SOLID
        27       201         0
*MAT_PLASTIC_KINEMATIC
        27       7.1       2.2       0.32.00000E-4     0.001       1.0
       0.0       0.0       0.0       0.0
*PART
Part_for_NURB_3D
        28        28        28         0         0         0         0         0
*SECTION_SOLID
        28       201         0
*MAT_PLASTIC_KINEMATIC
        28       7.1       2.2       0.32.00000E-4     0.001       1.0
       0.0       0.0       0.0       0.0
*PART
Part_for_NURB_3D
        29        29        29         0         0         0         0         0
*SECTION_SOLID
        29       201         0
*MAT_PLASTIC_KINEMATIC
        29       7.1       2.2       0.32.00000E-4     0.001       1.0
       0.0       0.0       0.0       0.0
*PART
Part_for_NURB_3D
        30        30        30         0         0         0         0         0
*SECTION_SOLID
        30       201         0
*MAT_PLASTIC_KINEMATIC
        30       7.1       2.2       0.32.00000E-4     0.001       1.0
       0.0       0.0       0.0       0.0
*PART
Part_for_NURB_3D
        31        31        31         0         0         0         0         0
*SECTION_SOLID
        31       201         0
*MAT_PLASTIC_KINEMATIC
        31       7.1       2.2       0.32.00000E-4     0.001       1.0
       0.0       0.0       0.0       0.0
*PART
Part_for_NURB_3D
        32        32        32         0         0         0         0         0
*SECTION_SOLID
        32       201         0
*MAT_PLASTIC_KINEMATIC
        32       7.1       2.2       0.32.00000E-4     0.001       1.0
       0.0       0.0       0.0       0.0
*PART
Part_for_NURB_3D
        33        33        33         0         0         0         0         0
*SECTION_SOLID
        33       201         0
*MAT_PLASTIC_KINEMATIC
        33       7.1       2.2       0.32.00000E-4     0.001       1.0
       0.0       0.0       0.0       0.0
*PART
Part_for_NURB_3D
        34        34        34         0         0         0         0         0
*SECTION_SOLID
        34       201         0
*MAT_PLASTIC_KINEMATIC
        34       7.1       2.2       0.32.00000E-4     0.001       1.0
       0.0       0.0       0.0       0.0
*PART
Part_for_NURB_3D
        35        35        35         0         0         0         0         0
*SECTION_SOLID
        35       201         0
*MAT_PLASTIC_KINEMATIC
        35       7.1       2.2       0.32.00000E-4     0.001       1.0
       0.0       0.0       0.0       0.0
*PART
Part_for_NURB_3D
        36        36        36         0         0         0         0         0
*SECTION_SOLID
        36       201         0
*MAT_PLASTIC_KINEMATIC
        36       7.1       2.2       0.32.00000E-4     0.001       1.0
       0.0       0.0       0.0       0.0
*PART
Part_for_NURB_3D
        37        37        37         0         0         0         0         0
*SECTION_SOLID
        37       201         0
*MAT_PLASTIC_KINEMATIC
        37       7.1       2.2       0.32.00000E-4     0.001       1.0
       0.0       0.0       0.0       0.0
*PART
Part_for_NURB_3D
        38        38        38         0         0         0         0         0
*SECTION_SOLID
        38       201         0
*MAT_PLASTIC_KINEMATIC
        38       7.1       2.2       0.32.00000E-4     0.001       1.0
       0.0       0.0       0.0       0.0
*PART
Part_for_NURB_3D
        39        39        39         0         0         0         0         0
*SECTION_SOLID
        39       201         0
*MAT_PLASTIC_KINEMATIC
        39       7.1       2.2       0.32.00000E-4     0.001       1.0
       0.0       0.0       0.0       0.0
*PART
Part_for_NURB_3D
        40        40        40         0         0         0         0         0
*SECTION_SOLID
        40       201         0
*MAT_PLASTIC_KINEMATIC
        40       7.1       2.2       0.32.00000E-4     0.001       1.0
       0.0       0.0       0.0       0.0
*PART
Part_for_NURB_3D
        41        41        41         0         0         0         0         0
*SECTION_SOLID
        41       201         0
*MAT_PLASTIC_KINEMATIC
        41       7.1       2.2       0.32.00000E-4     0.001       1.0
       0.0       0.0       0.0       0.0
*PART
Part_for_NURB_3D
        42        42        42         0         0         0         0         0
*SECTION_SOLID
        42       201         0
*MAT_PLASTIC_KINEMATIC
        42       7.1       2.2       0.32.00000E-4     0.001       1.0
       0.0       0.0       0.0       0.0
*PART
Part_for_NURB_3D
        43        43        43         0         0         0         0         0
*SECTION_SOLID
        43       201         0
*MAT_PLASTIC_KINEMATIC
        43       7.1       2.2       0.32.00000E-4     0.001       1.0
       0.0       0.0       0.0       0.0
*PART
Part_for_NURB_3D
        44        44        44         0         0         0         0         0
*SECTION_SOLID
        44       201         0
*MAT_PLASTIC_KINEMATIC
        44       7.1       2.2       0.32.00000E-4     0.001       1.0
       0.0       0.0       0.0       0.0
*PART
Part_for_NURB_3D
        45        45        45         0         0         0         0         0
*SECTION_SOLID
        45       201         0
*MAT_PLASTIC_KINEMATIC
        45       7.1       2.2       0.32.00000E-4     0.001       1.0
       0.0       0.0       0.0       0.0
*PART
Part_for_NURB_3D
        46        46        46         0         0         0         0         0
*SECTION_SOLID
        46       201         0
*MAT_PLASTIC_KINEMATIC
        46       7.1       2.2       0.32.00000E-4     0.001       1.0
       0.0       0.0       0.0       0.0
*PART
Part_for_NURB_3D
        47        47        47         0         0         0         0         0
*SECTION_SOLID
        47       201         0
*MAT_PLASTIC_KINEMATIC
        47       7.1       2.2       0.32.00000E-4     0.001       1.0
       0.0       0.0       0.0       0.0
*PART
Part_for_NURB_3D
        48        48        48         0         0         0         0         0
*SECTION_SOLID
        48       201         0
*MAT_PLASTIC_KINEMATIC
        48       7.1       2.2       0.32.00000E-4     0.001       1.0
       0.0       0.0       0.0       0.0
*PART
Part_for_NURB_3D
        49        49        49         0         0         0         0         0
*SECTION_SOLID
        49       201         0
*MAT_PLASTIC_KINEMATIC
        49       7.1       2.2       0.32.00000E-4     0.001       1.0
       0.0       0.0       0.0       0.0
*PART
Part_for_NURB_3D
        50        50        50         0         0         0         0         0
*SECTION_SOLID
        50       201         0
*MAT_PLASTIC_KINEMATIC
        50       7.1       2.2       0.32.00000E-4     0.001       1.0
       0.0       0.0       0.0       0.0
*PART
Part_for_NURB_3D
        51        51        51         0         0         0         0         0
*SECTION_SOLID
        51       201         0
*MAT_PLASTIC_KINEMATIC
        51       7.1       2.2       0.32.00000E-4     0.001       1.0
       0.0       0.0       0.0       0.0
*PART
Part_for_NURB_3D
        52        52        52         0         0         0         0         0
*SECTION_SOLID
        52       201         0
*MAT_PLASTIC_KINEMATIC
        52       7.1       2.2       0.32.00000E-4     0.001       1.0
       0.0       0.0       0.0       0.0
*PART
Part_for_NURB_3D
        53        53        53         0         0         0         0         0
*SECTION_SOLID
        53       201         0
*MAT_PLASTIC_KINEMATIC
        53       7.1       2.2       0.32.00000E-4     0.001       1.0
       0.0       0.0       0.0       0.0
*PART
Part_for_NURB_3D
        54        54        54         0         0         0         0         0
*SECTION_SOLID
        54       201         0
*MAT_PLASTIC_KINEMATIC
        54       7.1       2.2       0.32.00000E-4     0.001       1.0
       0.0       0.0       0.0       0.0
*PART
Part_for_NURB_3D
        55        55        55         0         0         0         0         0
*SECTION_SOLID
        55       201         0
*MAT_PLASTIC_KINEMATIC
        55       7.1       2.2       0.32.00000E-4     0.001       1.0
       0.0       0.0       0.0       0.0
*PART
Part_for_NURB_3D
        56        56        56         0         0         0         0         0
*SECTION_SOLID
        56       201         0
*MAT_PLASTIC_KINEMATIC
        56       7.1       2.2       0.32.00000E-4     0.001       1.0
       0.0       0.0       0.0       0.0
*PART
Part_for_NURB_3D
        57        57        57         0         0         0         0         0
*SECTION_SOLID
        57       201         0
*MAT_PLASTIC_KINEMATIC
        57       7.1       2.2       0.32.00000E-4     0.001       1.0
       0.0       0.0       0.0       0.0
*PART
Part_for_NURB_3D
        58        58        58         0         0         0         0         0
*SECTION_SOLID
        58       201         0
*MAT_PLASTIC_KINEMATIC
        58       7.1       2.2       0.32.00000E-4     0.001       1.0
       0.0       0.0       0.0       0.0
*ELEMENT_SOLID_NURBS_PATCH
         1         1         5         3         5         3         5         3
         0         3         3         3         0         0         0         0
       0.0       0.0       0.0       0.0       0.5       1.0       1.0       1.0
       1.0       0.0       0.0       0.0       0.0       0.0       0.0       0.0
       0.0       0.0       0.0       0.0       0.5       1.0       1.0       1.0
       1.0       0.0       0.0       0.0       0.0       0.0       0.0       0.0
       0.0       0.0       0.0       0.0       0.5       1.0       1.0       1.0
       1.0       0.0       0.0       0.0       0.0       0.0       0.0       0.0
        32        33        38        66        70         0         0         0
        28        29        36        64        68         0         0         0
         9        10        17        50        56         0         0         0
         2         3        13        46        52         0         0         0
         1         4        14        47        53         0         0         0
        34        35        39        67        71         0         0         0
        30        31        37        65        69         0         0         0
        11        12        18        51        57         0         0         0
         6         7        15        48        54         0         0         0
         5         8        16        49        55         0         0         0
        42        43        45        73        75         0         0         0
        40        41        44        72        74         0         0         0
$ ... 1894 like lines cut
*PART
$#                                                                         title
PRISM part
$#     pid     secid       mid     eosid      hgid      grav    adpopt      tmid
        59        59        59         0         0         0         0         0
*SECTION_SOLID
$#   secid    elform       aet   
        59        15         0
*MAT_ELASTIC
$#     mid        ro         e        pr        da        db  not used        
        59       1.0      50.0       0.3       0.0       0.0       0.0
*ELEMENT_SOLID
    3713      59    3434    1469    1471    3435    3760    3760    3761    3761
    3714      59    3435    1471    1478    3440    3761    3761    3767    3767
    3715      59    3440    1478    1514    3472    3767    3767    3803    3803
    3716      59    3472    1514    1520    3476    3803    3803    3807    3807
    3717      59    3436    3434    3435    3437    5062    5062    5067    5067
    3718      59    3437    3435    3440    3441    5067    5067    5068    5068
    3719      59    3441    3440    3472    3473    5068    5068    5069    5069
    3720      59    3473    3472    3476    3477    5069    5069    5070    5070
    3721      59    5062    5064    5071    5067    3436    3436    3437    3437
    3722      59    5067    5071    5072    5068    3437    3437    3441    3441
    3723      59    5068    5072    5073    5069    3441    3441    3473    3473
    3724      59    5069    5073    5074    5070    3473    3473    3477    3477
    3725      59    5062    3760    3761    5067    3764    3764    3765    3765
    3726      59    5067    3761    3767    5068    3765    3765    3769    3769
    3727      59    5068    3767    3803    5069    3769    3769    3805    3805
    3728      59    5069    3803    3807    5070    3805    3805    3809    3809
    3729      59    3760    5062    5067    3761    3434    3434    3435    3435
    3730      59    3761    5067    5068    3767    3435    3435    3440    3440
    3731      59    3767    5068    5069    3803    3440    3440    3472    3472
    3732      59    3803    5069    5070    3807    3472    3472    3476    3476
$ ... 236 like lines cut
*NODE
       1        -7.14975         -3.8195            -2.0       0       0
       2        -8.67712        -3.86123            -2.0       0       0
       3        -8.92378        -4.25384            -2.0       0       0
       4        -7.50876        -4.26107            -2.0       0       0
       5        -7.14621        -3.86403            -1.0       0       0
       6        -8.67446        -3.89483            -1.0       0       0
       7        -8.82907        -4.20918            -1.0       0       0
       8         -7.5061        -4.29447            -1.0       0       0
       9        -10.2045        -3.90297            -2.0       0       0
      10        -10.1566         -4.1943            -2.0       0       0
      11        -10.2027        -3.92562            -1.0       0       0
      12         -10.152        -4.19422            -1.0       0       0
      13        -9.06564        -4.60076            -2.0       0       0
      14        -7.86777        -4.70264            -2.0       0       0
      15        -8.98368        -4.52353            -1.0       0       0
      16          -7.866        -4.72491            -1.0       0       0
      17        -10.0587        -4.48487            -2.0       0       0
      18        -10.1014        -4.46281            -1.0       0       0
      19        -7.14266        -3.90857             0.0       0       0
      20         -8.6718        -3.92842             0.0       0       0
$ ... 5160 like lines cut
*END
