$# LS-DYNA Keyword file created by LS-PrePost 4.2 (Beta)
$# Created on Jun-10-2015
*KEYWORD
*ELEMENT_SOLID
1,1,1,2,3,4,5,6,7,8
2,1,2,9,10,3,6,11,12,7
3,1,4,3,13,14,8,7,15,16
4,1,3,10,17,13,7,12,18,15
5,1,5,6,7,8,19,20,21,22
6,1,6,11,12,7,20,23,24,21
7,1,8,7,15,16,22,21,25,26
8,1,7,12,18,15,21,24,27,25
9,1,9,28,29,10,11,30,31,12
10,1,28,32,33,29,30,34,35,31
11,1,10,29,36,17,12,31,37,18
12,1,29,33,38,36,31,35,39,37
13,1,11,30,31,12,23,40,41,24
14,1,30,34,35,31,40,42,43,41
15,1,12,31,37,18,24,41,44,27
16,1,31,35,39,37,41,43,45,44
17,1,14,13,46,47,16,15,48,49
18,1,13,17,50,46,15,18,51,48
19,1,47,46,52,53,49,48,54,55
20,1,46,50,56,52,48,51,57,54
21,1,16,15,48,49,26,25,58,59
22,1,15,18,51,48,25,27,60,58
23,1,49,48,54,55,59,58,61,62
24,1,48,51,57,54,58,60,63,61
25,1,17,36,64,50,18,37,65,51
26,1,36,38,66,64,37,39,67,65
27,1,50,64,68,56,51,65,69,57
28,1,64,66,70,68,65,67,71,69
29,1,18,37,65,51,27,44,72,60
30,1,37,39,67,65,44,45,73,72
31,1,51,65,69,57,60,72,74,63
32,1,65,67,71,69,72,73,75,74
33,1,19,20,21,22,76,77,78,79
34,1,20,23,24,21,77,80,81,78
35,1,22,21,25,26,79,78,82,83
36,1,21,24,27,25,78,81,84,82
37,1,76,77,78,79,85,86,87,88
38,1,77,80,81,78,86,89,90,87
39,1,79,78,82,83,88,87,91,92
40,1,78,81,84,82,87,90,93,91
41,1,23,40,41,24,80,94,95,81
42,1,40,42,43,41,94,96,97,95
43,1,24,41,44,27,81,95,98,84
44,1,41,43,45,44,95,97,99,98
45,1,80,94,95,81,89,100,101,90
46,1,94,96,97,95,100,102,103,101
47,1,81,95,98,84,90,101,104,93
48,1,95,97,99,98,101,103,105,104
49,1,26,25,58,59,83,82,106,107
50,1,25,27,60,58,82,84,108,106
51,1,59,58,61,62,107,106,109,110
52,1,58,60,63,61,106,108,111,109
53,1,83,82,106,107,92,91,112,113
54,1,82,84,108,106,91,93,114,112
55,1,107,106,109,110,113,112,115,116
56,1,106,108,111,109,112,114,117,115
57,1,27,44,72,60,84,98,118,108
58,1,44,45,73,72,98,99,119,118
59,1,60,72,74,63,108,118,120,111
60,1,72,73,75,74,118,119,121,120
61,1,84,98,118,108,93,104,122,114
62,1,98,99,119,118,104,105,123,122
63,1,108,118,120,111,114,122,124,117
64,1,118,119,121,120,122,123,125,124
65,1,70,66,126,127,71,67,128,129
66,1,66,38,130,126,67,39,131,128
67,1,127,126,132,133,129,128,134,135
68,1,126,130,136,132,128,131,137,134
69,1,71,67,128,129,75,73,138,139
70,1,67,39,131,128,73,45,140,138
71,1,129,128,134,135,139,138,141,142
72,1,128,131,137,134,138,140,143,141
73,1,38,33,144,130,39,35,145,131
74,1,33,32,146,144,35,34,147,145
75,1,130,144,148,136,131,145,149,137
76,1,144,146,150,148,145,147,151,149
77,1,39,35,145,131,45,43,152,140
78,1,35,34,147,145,43,42,153,152
79,1,131,145,149,137,140,152,154,143
80,1,145,147,151,149,152,153,155,154
81,1,133,132,156,157,135,134,158,159
82,1,132,136,160,156,134,137,161,158
83,1,157,156,162,163,159,158,164,165
84,1,156,160,166,162,158,161,167,164
85,1,135,134,158,159,142,141,168,169
86,1,134,137,161,158,141,143,170,168
87,1,159,158,164,165,169,168,171,172
88,1,158,161,167,164,168,170,173,171
89,1,136,148,174,160,137,149,175,161
90,1,148,150,176,174,149,151,177,175
91,1,160,174,178,166,161,175,179,167
92,1,174,176,180,178,175,177,181,179
93,1,137,149,175,161,143,154,182,170
94,1,149,151,177,175,154,155,183,182
95,1,161,175,179,167,170,182,184,173
96,1,175,177,181,179,182,183,185,184
97,1,75,73,138,139,121,119,186,187
98,1,73,45,140,138,119,99,188,186
99,1,139,138,141,142,187,186,189,190
100,1,138,140,143,141,186,188,191,189
101,1,121,119,186,187,125,123,192,193
102,1,119,99,188,186,123,105,194,192
103,1,187,186,189,190,193,192,195,196
104,1,186,188,191,189,192,194,197,195
105,1,45,43,152,140,99,97,198,188
106,1,43,42,153,152,97,96,199,198
107,1,140,152,154,143,188,198,200,191
108,1,152,153,155,154,198,199,201,200
109,1,99,97,198,188,105,103,202,194
110,1,97,96,199,198,103,102,203,202
111,1,188,198,200,191,194,202,204,197
112,1,198,199,201,200,202,203,205,204
113,1,142,141,168,169,190,189,206,207
114,1,141,143,170,168,189,191,208,206
115,1,169,168,171,172,207,206,209,210
116,1,168,170,173,171,206,208,211,209
117,1,190,189,206,207,196,195,212,213
118,1,189,191,208,206,195,197,214,212
119,1,207,206,209,210,213,212,215,216
120,1,206,208,211,209,212,214,217,215
121,1,143,154,182,170,191,200,218,208
122,1,154,155,183,182,200,201,219,218
123,1,170,182,184,173,208,218,220,211
124,1,182,183,185,184,218,219,221,220
125,1,191,200,218,208,197,204,222,214
126,1,200,201,219,218,204,205,223,222
127,1,208,218,220,211,214,222,224,217
128,1,218,219,221,220,222,223,225,224
129,1,1,4,226,227,5,8,228,229
130,1,4,14,230,226,8,16,231,228
131,1,227,226,232,233,229,228,234,235
132,1,226,230,236,232,228,231,237,234
133,1,5,8,228,229,19,22,238,239
134,1,8,16,231,228,22,26,240,238
135,1,229,228,234,235,239,238,241,242
136,1,228,231,237,234,238,240,243,241
137,1,14,47,244,230,16,49,245,231
138,1,47,53,246,244,49,55,247,245
139,1,230,244,248,236,231,245,249,237
140,1,244,246,250,248,245,247,251,249
141,1,16,49,245,231,26,59,252,240
142,1,49,55,247,245,59,62,253,252
143,1,231,245,249,237,240,252,254,243
144,1,245,247,251,249,252,253,255,254
145,1,233,232,256,257,235,234,258,259
146,1,232,236,260,256,234,237,261,258
147,1,257,256,262,263,259,258,264,265
148,1,256,260,266,262,258,261,267,264
149,1,235,234,258,259,242,241,268,269
150,1,234,237,261,258,241,243,270,268
151,1,259,258,264,265,269,268,271,272
152,1,258,261,267,264,268,270,273,271
153,1,236,248,274,260,237,249,275,261
154,1,248,250,276,274,249,251,277,275
155,1,260,274,278,266,261,275,279,267
156,1,274,276,280,278,275,277,281,279
157,1,237,249,275,261,243,254,282,270
158,1,249,251,277,275,254,255,283,282
159,1,261,275,279,267,270,282,284,273
160,1,275,277,281,279,282,283,285,284
161,1,19,22,238,239,76,79,286,287
162,1,22,26,240,238,79,83,288,286
163,1,239,238,241,242,287,286,289,290
164,1,238,240,243,241,286,288,291,289
165,1,76,79,286,287,85,88,292,293
166,1,79,83,288,286,88,92,294,292
167,1,287,286,289,290,293,292,295,296
168,1,286,288,291,289,292,294,297,295
169,1,26,59,252,240,83,107,298,288
170,1,59,62,253,252,107,110,299,298
171,1,240,252,254,243,288,298,300,291
172,1,252,253,255,254,298,299,301,300
173,1,83,107,298,288,92,113,302,294
174,1,107,110,299,298,113,116,303,302
175,1,288,298,300,291,294,302,304,297
176,1,298,299,301,300,302,303,305,304
177,1,242,241,268,269,290,289,306,307
178,1,241,243,270,268,289,291,308,306
179,1,269,268,271,272,307,306,309,310
180,1,268,270,273,271,306,308,311,309
181,1,290,289,306,307,296,295,312,313
182,1,289,291,308,306,295,297,314,312
183,1,307,306,309,310,313,312,315,316
184,1,306,308,311,309,312,314,317,315
185,1,243,254,282,270,291,300,318,308
186,1,254,255,283,282,300,301,319,318
187,1,270,282,284,273,308,318,320,311
188,1,282,283,285,284,318,319,321,320
189,1,291,300,318,308,297,304,322,314
190,1,300,301,319,318,304,305,323,322
191,1,308,318,320,311,314,322,324,317
192,1,318,319,321,320,322,323,325,324
193,1,280,326,327,278,281,328,329,279
194,1,326,330,331,327,328,332,333,329
195,1,278,327,334,266,279,329,335,267
196,1,327,331,336,334,329,333,337,335
197,1,281,328,329,279,285,338,339,284
198,1,328,332,333,329,338,340,341,339
199,1,279,329,335,267,284,339,342,273
200,1,329,333,337,335,339,341,343,342
201,1,330,344,345,331,332,346,347,333
202,1,344,163,162,345,346,165,164,347
203,1,331,345,348,336,333,347,349,337
204,1,345,162,166,348,347,164,167,349
205,1,332,346,347,333,340,350,351,341
206,1,346,165,164,347,350,172,171,351
207,1,333,347,349,337,341,351,352,343
208,1,347,164,167,349,351,171,173,352
209,1,266,334,353,262,267,335,354,264
210,1,334,336,355,353,335,337,356,354
211,1,262,353,357,263,264,354,358,265
212,1,353,355,359,357,354,356,360,358
213,1,267,335,354,264,273,342,361,271
214,1,335,337,356,354,342,343,362,361
215,1,264,354,358,265,271,361,363,272
216,1,354,356,360,358,361,362,364,363
217,1,336,348,365,355,337,349,366,356
218,1,348,166,178,365,349,167,179,366
219,1,355,365,367,359,356,366,368,360
220,1,365,178,180,367,366,179,181,368
221,1,337,349,366,356,343,352,369,362
222,1,349,167,179,366,352,173,184,369
223,1,356,366,368,360,362,369,370,364
224,1,366,179,181,368,369,184,185,370
225,1,285,338,339,284,321,371,372,320
226,1,338,340,341,339,371,373,374,372
227,1,284,339,342,273,320,372,375,311
228,1,339,341,343,342,372,374,376,375
229,1,321,371,372,320,325,377,378,324
230,1,371,373,374,372,377,379,380,378
231,1,320,372,375,311,324,378,381,317
232,1,372,374,376,375,378,380,382,381
233,1,340,350,351,341,373,383,384,374
234,1,350,172,171,351,383,210,209,384
235,1,341,351,352,343,374,384,385,376
236,1,351,171,173,352,384,209,211,385
237,1,373,383,384,374,379,386,387,380
238,1,383,210,209,384,386,216,215,387
239,1,374,384,385,376,380,387,388,382
240,1,384,209,211,385,387,215,217,388
241,1,273,342,361,271,311,375,389,309
242,1,342,343,362,361,375,376,390,389
243,1,271,361,363,272,309,389,391,310
244,1,361,362,364,363,389,390,392,391
245,1,311,375,389,309,317,381,393,315
246,1,375,376,390,389,381,382,394,393
247,1,309,389,391,310,315,393,395,316
248,1,389,390,392,391,393,394,396,395
249,1,343,352,369,362,376,385,397,390
250,1,352,173,184,369,385,211,220,397
251,1,362,369,370,364,390,397,398,392
252,1,369,184,185,370,397,220,221,398
253,1,376,385,397,390,382,388,399,394
254,1,385,211,220,397,388,217,224,399
255,1,390,397,398,392,394,399,400,396
256,1,397,220,221,398,399,224,225,400
257,1,401,402,403,404,405,406,407,408
258,1,402,409,410,403,406,411,412,407
259,1,404,403,413,414,408,407,415,416
260,1,403,410,417,413,407,412,418,415
261,1,405,406,407,408,419,420,421,422
262,1,406,411,412,407,420,423,424,421
263,1,408,407,415,416,422,421,425,426
264,1,407,412,418,415,421,424,427,425
265,1,409,428,429,410,411,430,431,412
266,1,428,432,433,429,430,434,435,431
267,1,410,429,436,417,412,431,437,418
268,1,429,433,438,436,431,435,439,437
269,1,411,430,431,412,423,440,441,424
270,1,430,434,435,431,440,442,443,441
271,1,412,431,437,418,424,441,444,427
272,1,431,435,439,437,441,443,445,444
273,1,414,413,446,447,416,415,448,449
274,1,413,417,450,446,415,418,451,448
275,1,447,446,452,453,449,448,454,455
276,1,446,450,456,452,448,451,457,454
277,1,416,415,448,449,426,425,458,459
278,1,415,418,451,448,425,427,460,458
279,1,449,448,454,455,459,458,461,462
280,1,448,451,457,454,458,460,463,461
281,1,417,436,464,450,418,437,465,451
282,1,436,438,466,464,437,439,467,465
283,1,450,464,468,456,451,465,469,457
284,1,464,466,470,468,465,467,471,469
285,1,418,437,465,451,427,444,472,460
286,1,437,439,467,465,444,445,473,472
287,1,451,465,469,457,460,472,474,463
288,1,465,467,471,469,472,473,475,474
289,1,419,420,421,422,476,477,478,479
290,1,420,423,424,421,477,480,481,478
291,1,422,421,425,426,479,478,482,483
292,1,421,424,427,425,478,481,484,482
293,1,476,477,478,479,485,486,487,488
294,1,477,480,481,478,486,489,490,487
295,1,479,478,482,483,488,487,491,492
296,1,478,481,484,482,487,490,493,491
297,1,423,440,441,424,480,494,495,481
298,1,440,442,443,441,494,496,497,495
299,1,424,441,444,427,481,495,498,484
300,1,441,443,445,444,495,497,499,498
301,1,480,494,495,481,489,500,501,490
302,1,494,496,497,495,500,502,503,501
303,1,481,495,498,484,490,501,504,493
304,1,495,497,499,498,501,503,505,504
305,1,426,425,458,459,483,482,506,507
306,1,425,427,460,458,482,484,508,506
307,1,459,458,461,462,507,506,509,510
308,1,458,460,463,461,506,508,511,509
309,1,483,482,506,507,492,491,512,513
310,1,482,484,508,506,491,493,514,512
311,1,507,506,509,510,513,512,515,516
312,1,506,508,511,509,512,514,517,515
313,1,427,444,472,460,484,498,518,508
314,1,444,445,473,472,498,499,519,518
315,1,460,472,474,463,508,518,520,511
316,1,472,473,475,474,518,519,521,520
317,1,484,498,518,508,493,504,522,514
318,1,498,499,519,518,504,505,523,522
319,1,508,518,520,511,514,522,524,517
320,1,518,519,521,520,522,523,525,524
321,1,526,527,528,529,530,531,532,533
322,1,527,534,535,528,531,536,537,532
323,1,529,528,538,539,533,532,540,541
324,1,528,535,542,538,532,537,543,540
325,1,530,531,532,533,544,545,546,547
326,1,531,536,537,532,545,548,549,546
327,1,533,532,540,541,547,546,550,551
328,1,532,537,543,540,546,549,552,550
329,1,534,553,554,535,536,555,556,537
330,1,553,557,558,554,555,559,560,556
331,1,535,554,561,542,537,556,562,543
332,1,554,558,563,561,556,560,564,562
333,1,536,555,556,537,548,565,566,549
334,1,555,559,560,556,565,567,568,566
335,1,537,556,562,543,549,566,569,552
336,1,556,560,564,562,566,568,570,569
337,1,539,538,571,572,541,540,573,574
338,1,538,542,575,571,540,543,576,573
339,1,572,571,433,432,574,573,435,434
340,1,571,575,438,433,573,576,439,435
341,1,541,540,573,574,551,550,577,578
342,1,540,543,576,573,550,552,579,577
343,1,574,573,435,434,578,577,443,442
344,1,573,576,439,435,577,579,445,443
345,1,542,561,580,575,543,562,581,576
346,1,561,563,582,580,562,564,583,581
347,1,575,580,466,438,576,581,467,439
348,1,580,582,470,466,581,583,471,467
349,1,543,562,581,576,552,569,584,579
350,1,562,564,583,581,569,570,585,584
351,1,576,581,467,439,579,584,473,445
352,1,581,583,471,467,584,585,475,473
353,1,544,545,546,547,586,587,588,589
354,1,545,548,549,546,587,590,591,588
355,1,547,546,550,551,589,588,592,593
356,1,546,549,552,550,588,591,594,592
357,1,586,587,588,589,595,596,597,598
358,1,587,590,591,588,596,599,600,597
359,1,589,588,592,593,598,597,601,602
360,1,588,591,594,592,597,600,603,601
361,1,548,565,566,549,590,604,605,591
362,1,565,567,568,566,604,606,607,605
363,1,549,566,569,552,591,605,608,594
364,1,566,568,570,569,605,607,609,608
365,1,590,604,605,591,599,610,611,600
366,1,604,606,607,605,610,612,613,611
367,1,591,605,608,594,600,611,614,603
368,1,605,607,609,608,611,613,615,614
369,1,551,550,577,578,593,592,616,617
370,1,550,552,579,577,592,594,618,616
371,1,578,577,443,442,617,616,497,496
372,1,577,579,445,443,616,618,499,497
373,1,593,592,616,617,602,601,619,620
374,1,592,594,618,616,601,603,621,619
375,1,617,616,497,496,620,619,503,502
376,1,616,618,499,497,619,621,505,503
377,1,552,569,584,579,594,608,622,618
378,1,569,570,585,584,608,609,623,622
379,1,579,584,473,445,618,622,519,499
380,1,584,585,475,473,622,623,521,519
381,1,594,608,622,618,603,614,624,621
382,1,608,609,623,622,614,615,625,624
383,1,618,622,519,499,621,624,523,505
384,1,622,623,521,519,624,625,525,523
385,1,626,627,628,629,630,631,632,633
386,1,627,634,635,628,631,636,637,632
387,1,629,628,638,639,633,632,640,641
388,1,628,635,642,638,632,637,643,640
389,1,630,631,632,633,644,645,646,647
390,1,631,636,637,632,645,648,649,646
391,1,633,632,640,641,647,646,650,651
392,1,632,637,643,640,646,649,652,650
393,1,634,653,654,635,636,655,656,637
394,1,653,657,658,654,655,659,660,656
395,1,635,654,661,642,637,656,662,643
396,1,654,658,663,661,656,660,664,662
397,1,636,655,656,637,648,665,666,649
398,1,655,659,660,656,665,667,668,666
399,1,637,656,662,643,649,666,669,652
400,1,656,660,664,662,666,668,670,669
401,1,639,638,671,672,641,640,673,674
402,1,638,642,675,671,640,643,676,673
403,1,672,671,447,453,674,673,449,455
404,1,671,675,414,447,673,676,416,449
405,1,641,640,673,674,651,650,677,678
406,1,640,643,676,673,650,652,679,677
407,1,674,673,449,455,678,677,459,462
408,1,673,676,416,449,677,679,426,459
409,1,642,661,680,675,643,662,681,676
410,1,661,663,682,680,662,664,683,681
411,1,675,680,404,414,676,681,408,416
412,1,680,682,401,404,681,683,405,408
413,1,643,662,681,676,652,669,684,679
414,1,662,664,683,681,669,670,685,684
415,1,676,681,408,416,679,684,422,426
416,1,681,683,405,408,684,685,419,422
417,1,644,645,646,647,686,687,688,689
418,1,645,648,649,646,687,690,691,688
419,1,647,646,650,651,689,688,692,693
420,1,646,649,652,650,688,691,694,692
421,1,686,687,688,689,695,696,697,698
422,1,687,690,691,688,696,699,700,697
423,1,689,688,692,693,698,697,701,702
424,1,688,691,694,692,697,700,703,701
425,1,648,665,666,649,690,704,705,691
426,1,665,667,668,666,704,706,707,705
427,1,649,666,669,652,691,705,708,694
428,1,666,668,670,669,705,707,709,708
429,1,690,704,705,691,699,710,711,700
430,1,704,706,707,705,710,712,713,711
431,1,691,705,708,694,700,711,714,703
432,1,705,707,709,708,711,713,715,714
433,1,651,650,677,678,693,692,716,717
434,1,650,652,679,677,692,694,718,716
435,1,678,677,459,462,717,716,507,510
436,1,677,679,426,459,716,718,483,507
437,1,693,692,716,717,702,701,719,720
438,1,692,694,718,716,701,703,721,719
439,1,717,716,507,510,720,719,513,516
440,1,716,718,483,507,719,721,492,513
441,1,652,669,684,679,694,708,722,718
442,1,669,670,685,684,708,709,723,722
443,1,679,684,422,426,718,722,479,483
444,1,684,685,419,422,722,723,476,479
445,1,694,708,722,718,703,714,724,721
446,1,708,709,723,722,714,715,725,724
447,1,718,722,479,483,721,724,488,492
448,1,722,723,476,479,724,725,485,488
449,1,626,726,727,627,630,728,729,631
450,1,726,730,731,727,728,732,733,729
451,1,627,727,734,634,631,729,735,636
452,1,727,731,736,734,729,733,737,735
453,1,630,728,729,631,644,738,739,645
454,1,728,732,733,729,738,740,741,739
455,1,631,729,735,636,645,739,742,648
456,1,729,733,737,735,739,741,743,742
457,1,730,744,745,731,732,746,747,733
458,1,744,557,553,745,746,559,555,747
459,1,731,745,748,736,733,747,749,737
460,1,745,553,534,748,747,555,536,749
461,1,732,746,747,733,740,750,751,741
462,1,746,559,555,747,750,567,565,751
463,1,733,747,749,737,741,751,752,743
464,1,747,555,536,749,751,565,548,752
465,1,634,734,753,653,636,735,754,655
466,1,734,736,755,753,735,737,756,754
467,1,653,753,757,657,655,754,758,659
468,1,753,755,759,757,754,756,760,758
469,1,636,735,754,655,648,742,761,665
470,1,735,737,756,754,742,743,762,761
471,1,655,754,758,659,665,761,763,667
472,1,754,756,760,758,761,762,764,763
473,1,736,748,765,755,737,749,766,756
474,1,748,534,527,765,749,536,531,766
475,1,755,765,767,759,756,766,768,760
476,1,765,527,526,767,766,531,530,768
477,1,737,749,766,756,743,752,769,762
478,1,749,536,531,766,752,548,545,769
479,1,756,766,768,760,762,769,770,764
480,1,766,531,530,768,769,545,544,770
481,1,644,738,739,645,686,771,772,687
482,1,738,740,741,739,771,773,774,772
483,1,645,739,742,648,687,772,775,690
484,1,739,741,743,742,772,774,776,775
485,1,686,771,772,687,695,777,778,696
486,1,771,773,774,772,777,779,780,778
487,1,687,772,775,690,696,778,781,699
488,1,772,774,776,775,778,780,782,781
489,1,740,750,751,741,773,783,784,774
490,1,750,567,565,751,783,606,604,784
491,1,741,751,752,743,774,784,785,776
492,1,751,565,548,752,784,604,590,785
493,1,773,783,784,774,779,786,787,780
494,1,783,606,604,784,786,612,610,787
495,1,774,784,785,776,780,787,788,782
496,1,784,604,590,785,787,610,599,788
497,1,648,742,761,665,690,775,789,704
498,1,742,743,762,761,775,776,790,789
499,1,665,761,763,667,704,789,791,706
500,1,761,762,764,763,789,790,792,791
501,1,690,775,789,704,699,781,793,710
502,1,775,776,790,789,781,782,794,793
503,1,704,789,791,706,710,793,795,712
504,1,789,790,792,791,793,794,796,795
505,1,743,752,769,762,776,785,797,790
506,1,752,548,545,769,785,590,587,797
507,1,762,769,770,764,790,797,798,792
508,1,769,545,544,770,797,587,586,798
509,1,776,785,797,790,782,788,799,794
510,1,785,590,587,797,788,599,596,799
511,1,790,797,798,792,794,799,800,796
512,1,797,587,586,798,799,596,595,800
513,1,801,802,803,804,805,806,807,808
514,1,802,809,810,803,806,811,812,807
515,1,804,803,813,814,808,807,815,816
516,1,803,810,817,813,807,812,818,815
517,1,805,806,807,808,819,820,821,822
518,1,806,811,812,807,820,823,824,821
519,1,808,807,815,816,822,821,825,826
520,1,807,812,818,815,821,824,827,825
521,1,809,828,829,810,811,830,831,812
522,1,828,832,833,829,830,834,835,831
523,1,810,829,836,817,812,831,837,818
524,1,829,833,838,836,831,835,839,837
525,1,811,830,831,812,823,840,841,824
526,1,830,834,835,831,840,842,843,841
527,1,812,831,837,818,824,841,844,827
528,1,831,835,839,837,841,843,845,844
529,1,814,813,846,847,816,815,848,849
530,1,813,817,850,846,815,818,851,848
531,1,847,846,852,853,849,848,854,855
532,1,846,850,856,852,848,851,857,854
533,1,816,815,848,849,826,825,858,859
534,1,815,818,851,848,825,827,860,858
535,1,849,848,854,855,859,858,861,862
536,1,848,851,857,854,858,860,863,861
537,1,817,836,864,850,818,837,865,851
538,1,836,838,866,864,837,839,867,865
539,1,850,864,868,856,851,865,869,857
540,1,864,866,870,868,865,867,871,869
541,1,818,837,865,851,827,844,872,860
542,1,837,839,867,865,844,845,873,872
543,1,851,865,869,857,860,872,874,863
544,1,865,867,871,869,872,873,875,874
545,1,819,820,821,822,876,877,878,879
546,1,820,823,824,821,877,880,881,878
547,1,822,821,825,826,879,878,882,883
548,1,821,824,827,825,878,881,884,882
549,1,876,877,878,879,885,886,887,888
550,1,877,880,881,878,886,889,890,887
551,1,879,878,882,883,888,887,891,892
552,1,878,881,884,882,887,890,893,891
553,1,823,840,841,824,880,894,895,881
554,1,840,842,843,841,894,896,897,895
555,1,824,841,844,827,881,895,898,884
556,1,841,843,845,844,895,897,899,898
557,1,880,894,895,881,889,900,901,890
558,1,894,896,897,895,900,902,903,901
559,1,881,895,898,884,890,901,904,893
560,1,895,897,899,898,901,903,905,904
561,1,826,825,858,859,883,882,906,907
562,1,825,827,860,858,882,884,908,906
563,1,859,858,861,862,907,906,909,910
564,1,858,860,863,861,906,908,911,909
565,1,883,882,906,907,892,891,912,913
566,1,882,884,908,906,891,893,914,912
567,1,907,906,909,910,913,912,915,916
568,1,906,908,911,909,912,914,917,915
569,1,827,844,872,860,884,898,918,908
570,1,844,845,873,872,898,899,919,918
571,1,860,872,874,863,908,918,920,911
572,1,872,873,875,874,918,919,921,920
573,1,884,898,918,908,893,904,922,914
574,1,898,899,919,918,904,905,923,922
575,1,908,918,920,911,914,922,924,917
576,1,918,919,921,920,922,923,925,924
577,1,870,866,926,927,871,867,928,929
578,1,866,838,930,926,867,839,931,928
579,1,927,926,932,933,929,928,934,935
580,1,926,930,936,932,928,931,937,934
581,1,871,867,928,929,875,873,938,939
582,1,867,839,931,928,873,845,940,938
583,1,929,928,934,935,939,938,941,942
584,1,928,931,937,934,938,940,943,941
585,1,838,833,944,930,839,835,945,931
586,1,833,832,946,944,835,834,947,945
587,1,930,944,948,936,931,945,949,937
588,1,944,946,950,948,945,947,951,949
589,1,839,835,945,931,845,843,952,940
590,1,835,834,947,945,843,842,953,952
591,1,931,945,949,937,940,952,954,943
592,1,945,947,951,949,952,953,955,954
593,1,933,932,956,957,935,934,958,959
594,1,932,936,960,956,934,937,961,958
595,1,957,956,962,963,959,958,964,965
596,1,956,960,966,962,958,961,967,964
597,1,935,934,958,959,942,941,968,969
598,1,934,937,961,958,941,943,970,968
599,1,959,958,964,965,969,968,971,972
600,1,958,961,967,964,968,970,973,971
601,1,936,948,974,960,937,949,975,961
602,1,948,950,976,974,949,951,977,975
603,1,960,974,978,966,961,975,979,967
604,1,974,976,980,978,975,977,981,979
605,1,937,949,975,961,943,954,982,970
606,1,949,951,977,975,954,955,983,982
607,1,961,975,979,967,970,982,984,973
608,1,975,977,981,979,982,983,985,984
609,1,875,873,938,939,921,919,986,987
610,1,873,845,940,938,919,899,988,986
611,1,939,938,941,942,987,986,989,990
612,1,938,940,943,941,986,988,991,989
613,1,921,919,986,987,925,923,992,993
614,1,919,899,988,986,923,905,994,992
615,1,987,986,989,990,993,992,995,996
616,1,986,988,991,989,992,994,997,995
617,1,845,843,952,940,899,897,998,988
618,1,843,842,953,952,897,896,999,998
619,1,940,952,954,943,988,998,1000,991
620,1,952,953,955,954,998,999,1001,1000
621,1,899,897,998,988,905,903,1002,994
622,1,897,896,999,998,903,902,1003,1002
623,1,988,998,1000,991,994,1002,1004,997
624,1,998,999,1001,1000,1002,1003,1005,1004
625,1,942,941,968,969,990,989,1006,1007
626,1,941,943,970,968,989,991,1008,1006
627,1,969,968,971,972,1007,1006,1009,1010
628,1,968,970,973,971,1006,1008,1011,1009
629,1,990,989,1006,1007,996,995,1012,1013
630,1,989,991,1008,1006,995,997,1014,1012
631,1,1007,1006,1009,1010,1013,1012,1015,1016
632,1,1006,1008,1011,1009,1012,1014,1017,1015
633,1,943,954,982,970,991,1000,1018,1008
634,1,954,955,983,982,1000,1001,1019,1018
635,1,970,982,984,973,1008,1018,1020,1011
636,1,982,983,985,984,1018,1019,1021,1020
637,1,991,1000,1018,1008,997,1004,1022,1014
638,1,1000,1001,1019,1018,1004,1005,1023,1022
639,1,1008,1018,1020,1011,1014,1022,1024,1017
640,1,1018,1019,1021,1020,1022,1023,1025,1024
641,1,801,804,1026,1027,805,808,1028,1029
642,1,804,814,1030,1026,808,816,1031,1028
643,1,1027,1026,1032,1033,1029,1028,1034,1035
644,1,1026,1030,1036,1032,1028,1031,1037,1034
645,1,805,808,1028,1029,819,822,1038,1039
646,1,808,816,1031,1028,822,826,1040,1038
647,1,1029,1028,1034,1035,1039,1038,1041,1042
648,1,1028,1031,1037,1034,1038,1040,1043,1041
649,1,814,847,1044,1030,816,849,1045,1031
650,1,847,853,1046,1044,849,855,1047,1045
651,1,1030,1044,1048,1036,1031,1045,1049,1037
652,1,1044,1046,1050,1048,1045,1047,1051,1049
653,1,816,849,1045,1031,826,859,1052,1040
654,1,849,855,1047,1045,859,862,1053,1052
655,1,1031,1045,1049,1037,1040,1052,1054,1043
656,1,1045,1047,1051,1049,1052,1053,1055,1054
657,1,1033,1032,1056,1057,1035,1034,1058,1059
658,1,1032,1036,1060,1056,1034,1037,1061,1058
659,1,1057,1056,1062,1063,1059,1058,1064,1065
660,1,1056,1060,1066,1062,1058,1061,1067,1064
661,1,1035,1034,1058,1059,1042,1041,1068,1069
662,1,1034,1037,1061,1058,1041,1043,1070,1068
663,1,1059,1058,1064,1065,1069,1068,1071,1072
664,1,1058,1061,1067,1064,1068,1070,1073,1071
665,1,1036,1048,1074,1060,1037,1049,1075,1061
666,1,1048,1050,1076,1074,1049,1051,1077,1075
667,1,1060,1074,1078,1066,1061,1075,1079,1067
668,1,1074,1076,1080,1078,1075,1077,1081,1079
669,1,1037,1049,1075,1061,1043,1054,1082,1070
670,1,1049,1051,1077,1075,1054,1055,1083,1082
671,1,1061,1075,1079,1067,1070,1082,1084,1073
672,1,1075,1077,1081,1079,1082,1083,1085,1084
673,1,819,822,1038,1039,876,879,1086,1087
674,1,822,826,1040,1038,879,883,1088,1086
675,1,1039,1038,1041,1042,1087,1086,1089,1090
676,1,1038,1040,1043,1041,1086,1088,1091,1089
677,1,876,879,1086,1087,885,888,1092,1093
678,1,879,883,1088,1086,888,892,1094,1092
679,1,1087,1086,1089,1090,1093,1092,1095,1096
680,1,1086,1088,1091,1089,1092,1094,1097,1095
681,1,826,859,1052,1040,883,907,1098,1088
682,1,859,862,1053,1052,907,910,1099,1098
683,1,1040,1052,1054,1043,1088,1098,1100,1091
684,1,1052,1053,1055,1054,1098,1099,1101,1100
685,1,883,907,1098,1088,892,913,1102,1094
686,1,907,910,1099,1098,913,916,1103,1102
687,1,1088,1098,1100,1091,1094,1102,1104,1097
688,1,1098,1099,1101,1100,1102,1103,1105,1104
689,1,1042,1041,1068,1069,1090,1089,1106,1107
690,1,1041,1043,1070,1068,1089,1091,1108,1106
691,1,1069,1068,1071,1072,1107,1106,1109,1110
692,1,1068,1070,1073,1071,1106,1108,1111,1109
693,1,1090,1089,1106,1107,1096,1095,1112,1113
694,1,1089,1091,1108,1106,1095,1097,1114,1112
695,1,1107,1106,1109,1110,1113,1112,1115,1116
696,1,1106,1108,1111,1109,1112,1114,1117,1115
697,1,1043,1054,1082,1070,1091,1100,1118,1108
698,1,1054,1055,1083,1082,1100,1101,1119,1118
699,1,1070,1082,1084,1073,1108,1118,1120,1111
700,1,1082,1083,1085,1084,1118,1119,1121,1120
701,1,1091,1100,1118,1108,1097,1104,1122,1114
702,1,1100,1101,1119,1118,1104,1105,1123,1122
703,1,1108,1118,1120,1111,1114,1122,1124,1117
704,1,1118,1119,1121,1120,1122,1123,1125,1124
705,1,1080,1126,1127,1078,1081,1128,1129,1079
706,1,1126,1130,1131,1127,1128,1132,1133,1129
707,1,1078,1127,1134,1066,1079,1129,1135,1067
708,1,1127,1131,1136,1134,1129,1133,1137,1135
709,1,1081,1128,1129,1079,1085,1138,1139,1084
710,1,1128,1132,1133,1129,1138,1140,1141,1139
711,1,1079,1129,1135,1067,1084,1139,1142,1073
712,1,1129,1133,1137,1135,1139,1141,1143,1142
713,1,1130,1144,1145,1131,1132,1146,1147,1133
714,1,1144,963,962,1145,1146,965,964,1147
715,1,1131,1145,1148,1136,1133,1147,1149,1137
716,1,1145,962,966,1148,1147,964,967,1149
717,1,1132,1146,1147,1133,1140,1150,1151,1141
718,1,1146,965,964,1147,1150,972,971,1151
719,1,1133,1147,1149,1137,1141,1151,1152,1143
720,1,1147,964,967,1149,1151,971,973,1152
721,1,1066,1134,1153,1062,1067,1135,1154,1064
722,1,1134,1136,1155,1153,1135,1137,1156,1154
723,1,1062,1153,1157,1063,1064,1154,1158,1065
724,1,1153,1155,1159,1157,1154,1156,1160,1158
725,1,1067,1135,1154,1064,1073,1142,1161,1071
726,1,1135,1137,1156,1154,1142,1143,1162,1161
727,1,1064,1154,1158,1065,1071,1161,1163,1072
728,1,1154,1156,1160,1158,1161,1162,1164,1163
729,1,1136,1148,1165,1155,1137,1149,1166,1156
730,1,1148,966,978,1165,1149,967,979,1166
731,1,1155,1165,1167,1159,1156,1166,1168,1160
732,1,1165,978,980,1167,1166,979,981,1168
733,1,1137,1149,1166,1156,1143,1152,1169,1162
734,1,1149,967,979,1166,1152,973,984,1169
735,1,1156,1166,1168,1160,1162,1169,1170,1164
736,1,1166,979,981,1168,1169,984,985,1170
737,1,1085,1138,1139,1084,1121,1171,1172,1120
738,1,1138,1140,1141,1139,1171,1173,1174,1172
739,1,1084,1139,1142,1073,1120,1172,1175,1111
740,1,1139,1141,1143,1142,1172,1174,1176,1175
741,1,1121,1171,1172,1120,1125,1177,1178,1124
742,1,1171,1173,1174,1172,1177,1179,1180,1178
743,1,1120,1172,1175,1111,1124,1178,1181,1117
744,1,1172,1174,1176,1175,1178,1180,1182,1181
745,1,1140,1150,1151,1141,1173,1183,1184,1174
746,1,1150,972,971,1151,1183,1010,1009,1184
747,1,1141,1151,1152,1143,1174,1184,1185,1176
748,1,1151,971,973,1152,1184,1009,1011,1185
749,1,1173,1183,1184,1174,1179,1186,1187,1180
750,1,1183,1010,1009,1184,1186,1016,1015,1187
751,1,1174,1184,1185,1176,1180,1187,1188,1182
752,1,1184,1009,1011,1185,1187,1015,1017,1188
753,1,1073,1142,1161,1071,1111,1175,1189,1109
754,1,1142,1143,1162,1161,1175,1176,1190,1189
755,1,1071,1161,1163,1072,1109,1189,1191,1110
756,1,1161,1162,1164,1163,1189,1190,1192,1191
757,1,1111,1175,1189,1109,1117,1181,1193,1115
758,1,1175,1176,1190,1189,1181,1182,1194,1193
759,1,1109,1189,1191,1110,1115,1193,1195,1116
760,1,1189,1190,1192,1191,1193,1194,1196,1195
761,1,1143,1152,1169,1162,1176,1185,1197,1190
762,1,1152,973,984,1169,1185,1011,1020,1197
763,1,1162,1169,1170,1164,1190,1197,1198,1192
764,1,1169,984,985,1170,1197,1020,1021,1198
765,1,1176,1185,1197,1190,1182,1188,1199,1194
766,1,1185,1011,1020,1197,1188,1017,1024,1199
767,1,1190,1197,1198,1192,1194,1199,1200,1196
768,1,1197,1020,1021,1198,1199,1024,1025,1200
769,1,1201,1202,1203,1204,1205,1206,1207,1208
770,1,1202,1209,1210,1203,1206,1211,1212,1207
771,1,1204,1203,1213,1214,1208,1207,1215,1216
772,1,1203,1210,1217,1213,1207,1212,1218,1215
773,1,1205,1206,1207,1208,1219,1220,1221,1222
774,1,1206,1211,1212,1207,1220,1223,1224,1221
775,1,1208,1207,1215,1216,1222,1221,1225,1226
776,1,1207,1212,1218,1215,1221,1224,1227,1225
777,1,1209,1228,1229,1210,1211,1230,1231,1212
778,1,1228,1232,1233,1229,1230,1234,1235,1231
779,1,1210,1229,1236,1217,1212,1231,1237,1218
780,1,1229,1233,1238,1236,1231,1235,1239,1237
781,1,1211,1230,1231,1212,1223,1240,1241,1224
782,1,1230,1234,1235,1231,1240,1242,1243,1241
783,1,1212,1231,1237,1218,1224,1241,1244,1227
784,1,1231,1235,1239,1237,1241,1243,1245,1244
785,1,1214,1213,1246,1247,1216,1215,1248,1249
786,1,1213,1217,1250,1246,1215,1218,1251,1248
787,1,1247,1246,1252,1253,1249,1248,1254,1255
788,1,1246,1250,1256,1252,1248,1251,1257,1254
789,1,1216,1215,1248,1249,1226,1225,1258,1259
790,1,1215,1218,1251,1248,1225,1227,1260,1258
791,1,1249,1248,1254,1255,1259,1258,1261,1262
792,1,1248,1251,1257,1254,1258,1260,1263,1261
793,1,1217,1236,1264,1250,1218,1237,1265,1251
794,1,1236,1238,1266,1264,1237,1239,1267,1265
795,1,1250,1264,1268,1256,1251,1265,1269,1257
796,1,1264,1266,1270,1268,1265,1267,1271,1269
797,1,1218,1237,1265,1251,1227,1244,1272,1260
798,1,1237,1239,1267,1265,1244,1245,1273,1272
799,1,1251,1265,1269,1257,1260,1272,1274,1263
800,1,1265,1267,1271,1269,1272,1273,1275,1274
801,1,1219,1220,1221,1222,1276,1277,1278,1279
802,1,1220,1223,1224,1221,1277,1280,1281,1278
803,1,1222,1221,1225,1226,1279,1278,1282,1283
804,1,1221,1224,1227,1225,1278,1281,1284,1282
805,1,1276,1277,1278,1279,1285,1286,1287,1288
806,1,1277,1280,1281,1278,1286,1289,1290,1287
807,1,1279,1278,1282,1283,1288,1287,1291,1292
808,1,1278,1281,1284,1282,1287,1290,1293,1291
809,1,1223,1240,1241,1224,1280,1294,1295,1281
810,1,1240,1242,1243,1241,1294,1296,1297,1295
811,1,1224,1241,1244,1227,1281,1295,1298,1284
812,1,1241,1243,1245,1244,1295,1297,1299,1298
813,1,1280,1294,1295,1281,1289,1300,1301,1290
814,1,1294,1296,1297,1295,1300,1302,1303,1301
815,1,1281,1295,1298,1284,1290,1301,1304,1293
816,1,1295,1297,1299,1298,1301,1303,1305,1304
817,1,1226,1225,1258,1259,1283,1282,1306,1307
818,1,1225,1227,1260,1258,1282,1284,1308,1306
819,1,1259,1258,1261,1262,1307,1306,1309,1310
820,1,1258,1260,1263,1261,1306,1308,1311,1309
821,1,1283,1282,1306,1307,1292,1291,1312,1313
822,1,1282,1284,1308,1306,1291,1293,1314,1312
823,1,1307,1306,1309,1310,1313,1312,1315,1316
824,1,1306,1308,1311,1309,1312,1314,1317,1315
825,1,1227,1244,1272,1260,1284,1298,1318,1308
826,1,1244,1245,1273,1272,1298,1299,1319,1318
827,1,1260,1272,1274,1263,1308,1318,1320,1311
828,1,1272,1273,1275,1274,1318,1319,1321,1320
829,1,1284,1298,1318,1308,1293,1304,1322,1314
830,1,1298,1299,1319,1318,1304,1305,1323,1322
831,1,1308,1318,1320,1311,1314,1322,1324,1317
832,1,1318,1319,1321,1320,1322,1323,1325,1324
833,1,1270,1266,1326,1327,1271,1267,1328,1329
834,1,1266,1238,1330,1326,1267,1239,1331,1328
835,1,1327,1326,1332,1333,1329,1328,1334,1335
836,1,1326,1330,1336,1332,1328,1331,1337,1334
837,1,1271,1267,1328,1329,1275,1273,1338,1339
838,1,1267,1239,1331,1328,1273,1245,1340,1338
839,1,1329,1328,1334,1335,1339,1338,1341,1342
840,1,1328,1331,1337,1334,1338,1340,1343,1341
841,1,1238,1233,1344,1330,1239,1235,1345,1331
842,1,1233,1232,1346,1344,1235,1234,1347,1345
843,1,1330,1344,1348,1336,1331,1345,1349,1337
844,1,1344,1346,1350,1348,1345,1347,1351,1349
845,1,1239,1235,1345,1331,1245,1243,1352,1340
846,1,1235,1234,1347,1345,1243,1242,1353,1352
847,1,1331,1345,1349,1337,1340,1352,1354,1343
848,1,1345,1347,1351,1349,1352,1353,1355,1354
849,1,1333,1332,1356,1357,1335,1334,1358,1359
850,1,1332,1336,1360,1356,1334,1337,1361,1358
851,1,1357,1356,1362,1363,1359,1358,1364,1365
852,1,1356,1360,1366,1362,1358,1361,1367,1364
853,1,1335,1334,1358,1359,1342,1341,1368,1369
854,1,1334,1337,1361,1358,1341,1343,1370,1368
855,1,1359,1358,1364,1365,1369,1368,1371,1372
856,1,1358,1361,1367,1364,1368,1370,1373,1371
857,1,1336,1348,1374,1360,1337,1349,1375,1361
858,1,1348,1350,1376,1374,1349,1351,1377,1375
859,1,1360,1374,1378,1366,1361,1375,1379,1367
860,1,1374,1376,1380,1378,1375,1377,1381,1379
861,1,1337,1349,1375,1361,1343,1354,1382,1370
862,1,1349,1351,1377,1375,1354,1355,1383,1382
863,1,1361,1375,1379,1367,1370,1382,1384,1373
864,1,1375,1377,1381,1379,1382,1383,1385,1384
865,1,1275,1273,1338,1339,1321,1319,1386,1387
866,1,1273,1245,1340,1338,1319,1299,1388,1386
867,1,1339,1338,1341,1342,1387,1386,1389,1390
868,1,1338,1340,1343,1341,1386,1388,1391,1389
869,1,1321,1319,1386,1387,1325,1323,1392,1393
870,1,1319,1299,1388,1386,1323,1305,1394,1392
871,1,1387,1386,1389,1390,1393,1392,1395,1396
872,1,1386,1388,1391,1389,1392,1394,1397,1395
873,1,1245,1243,1352,1340,1299,1297,1398,1388
874,1,1243,1242,1353,1352,1297,1296,1399,1398
875,1,1340,1352,1354,1343,1388,1398,1400,1391
876,1,1352,1353,1355,1354,1398,1399,1401,1400
877,1,1299,1297,1398,1388,1305,1303,1402,1394
878,1,1297,1296,1399,1398,1303,1302,1403,1402
879,1,1388,1398,1400,1391,1394,1402,1404,1397
880,1,1398,1399,1401,1400,1402,1403,1405,1404
881,1,1342,1341,1368,1369,1390,1389,1406,1407
882,1,1341,1343,1370,1368,1389,1391,1408,1406
883,1,1369,1368,1371,1372,1407,1406,1409,1410
884,1,1368,1370,1373,1371,1406,1408,1411,1409
885,1,1390,1389,1406,1407,1396,1395,1412,1413
886,1,1389,1391,1408,1406,1395,1397,1414,1412
887,1,1407,1406,1409,1410,1413,1412,1415,1416
888,1,1406,1408,1411,1409,1412,1414,1417,1415
889,1,1343,1354,1382,1370,1391,1400,1418,1408
890,1,1354,1355,1383,1382,1400,1401,1419,1418
891,1,1370,1382,1384,1373,1408,1418,1420,1411
892,1,1382,1383,1385,1384,1418,1419,1421,1420
893,1,1391,1400,1418,1408,1397,1404,1422,1414
894,1,1400,1401,1419,1418,1404,1405,1423,1422
895,1,1408,1418,1420,1411,1414,1422,1424,1417
896,1,1418,1419,1421,1420,1422,1423,1425,1424
897,1,1426,1427,1428,1429,1430,1431,1432,1433
898,1,1427,1434,1435,1428,1431,1436,1437,1432
899,1,1429,1428,1438,1439,1433,1432,1440,1441
900,1,1428,1435,1442,1438,1432,1437,1443,1440
901,1,1430,1431,1432,1433,1444,1445,1446,1447
902,1,1431,1436,1437,1432,1445,1448,1449,1446
903,1,1433,1432,1440,1441,1447,1446,1450,1451
904,1,1432,1437,1443,1440,1446,1449,1452,1450
905,1,1434,1453,1454,1435,1436,1455,1456,1437
906,1,1453,1363,1362,1454,1455,1365,1364,1456
907,1,1435,1454,1457,1442,1437,1456,1458,1443
908,1,1454,1362,1366,1457,1456,1364,1367,1458
909,1,1436,1455,1456,1437,1448,1459,1460,1449
910,1,1455,1365,1364,1456,1459,1372,1371,1460
911,1,1437,1456,1458,1443,1449,1460,1461,1452
912,1,1456,1364,1367,1458,1460,1371,1373,1461
913,1,1439,1438,1462,1463,1441,1440,1464,1465
914,1,1438,1442,1466,1462,1440,1443,1467,1464
915,1,1463,1462,1468,1469,1465,1464,1470,1471
916,1,1462,1466,1472,1468,1464,1467,1473,1470
917,1,1441,1440,1464,1465,1451,1450,1474,1475
918,1,1440,1443,1467,1464,1450,1452,1476,1474
919,1,1465,1464,1470,1471,1475,1474,1477,1478
920,1,1464,1467,1473,1470,1474,1476,1479,1477
921,1,1442,1457,1480,1466,1443,1458,1481,1467
922,1,1457,1366,1378,1480,1458,1367,1379,1481
923,1,1466,1480,1482,1472,1467,1481,1483,1473
924,1,1480,1378,1380,1482,1481,1379,1381,1483
925,1,1443,1458,1481,1467,1452,1461,1484,1476
926,1,1458,1367,1379,1481,1461,1373,1384,1484
927,1,1467,1481,1483,1473,1476,1484,1485,1479
928,1,1481,1379,1381,1483,1484,1384,1385,1485
929,1,1444,1445,1446,1447,1486,1487,1488,1489
930,1,1445,1448,1449,1446,1487,1490,1491,1488
931,1,1447,1446,1450,1451,1489,1488,1492,1493
932,1,1446,1449,1452,1450,1488,1491,1494,1492
933,1,1486,1487,1488,1489,1495,1496,1497,1498
934,1,1487,1490,1491,1488,1496,1499,1500,1497
935,1,1489,1488,1492,1493,1498,1497,1501,1502
936,1,1488,1491,1494,1492,1497,1500,1503,1501
937,1,1448,1459,1460,1449,1490,1504,1505,1491
938,1,1459,1372,1371,1460,1504,1410,1409,1505
939,1,1449,1460,1461,1452,1491,1505,1506,1494
940,1,1460,1371,1373,1461,1505,1409,1411,1506
941,1,1490,1504,1505,1491,1499,1507,1508,1500
942,1,1504,1410,1409,1505,1507,1416,1415,1508
943,1,1491,1505,1506,1494,1500,1508,1509,1503
944,1,1505,1409,1411,1506,1508,1415,1417,1509
945,1,1451,1450,1474,1475,1493,1492,1510,1511
946,1,1450,1452,1476,1474,1492,1494,1512,1510
947,1,1475,1474,1477,1478,1511,1510,1513,1514
948,1,1474,1476,1479,1477,1510,1512,1515,1513
949,1,1493,1492,1510,1511,1502,1501,1516,1517
950,1,1492,1494,1512,1510,1501,1503,1518,1516
951,1,1511,1510,1513,1514,1517,1516,1519,1520
952,1,1510,1512,1515,1513,1516,1518,1521,1519
953,1,1452,1461,1484,1476,1494,1506,1522,1512
954,1,1461,1373,1384,1484,1506,1411,1420,1522
955,1,1476,1484,1485,1479,1512,1522,1523,1515
956,1,1484,1384,1385,1485,1522,1420,1421,1523
957,1,1494,1506,1522,1512,1503,1509,1524,1518
958,1,1506,1411,1420,1522,1509,1417,1424,1524
959,1,1512,1522,1523,1515,1518,1524,1525,1521
960,1,1522,1420,1421,1523,1524,1424,1425,1525
961,1,1201,1204,1526,1527,1205,1208,1528,1529
962,1,1204,1214,1530,1526,1208,1216,1531,1528
963,1,1527,1526,1532,1533,1529,1528,1534,1535
964,1,1526,1530,1536,1532,1528,1531,1537,1534
965,1,1205,1208,1528,1529,1219,1222,1538,1539
966,1,1208,1216,1531,1528,1222,1226,1540,1538
967,1,1529,1528,1534,1535,1539,1538,1541,1542
968,1,1528,1531,1537,1534,1538,1540,1543,1541
969,1,1214,1247,1544,1530,1216,1249,1545,1531
970,1,1247,1253,1546,1544,1249,1255,1547,1545
971,1,1530,1544,1548,1536,1531,1545,1549,1537
972,1,1544,1546,1550,1548,1545,1547,1551,1549
973,1,1216,1249,1545,1531,1226,1259,1552,1540
974,1,1249,1255,1547,1545,1259,1262,1553,1552
975,1,1531,1545,1549,1537,1540,1552,1554,1543
976,1,1545,1547,1551,1549,1552,1553,1555,1554
977,1,1533,1532,1556,1557,1535,1534,1558,1559
978,1,1532,1536,1560,1556,1534,1537,1561,1558
979,1,1557,1556,1463,1469,1559,1558,1465,1471
980,1,1556,1560,1439,1463,1558,1561,1441,1465
981,1,1535,1534,1558,1559,1542,1541,1562,1563
982,1,1534,1537,1561,1558,1541,1543,1564,1562
983,1,1559,1558,1465,1471,1563,1562,1475,1478
984,1,1558,1561,1441,1465,1562,1564,1451,1475
985,1,1536,1548,1565,1560,1537,1549,1566,1561
986,1,1548,1550,1567,1565,1549,1551,1568,1566
987,1,1560,1565,1429,1439,1561,1566,1433,1441
988,1,1565,1567,1426,1429,1566,1568,1430,1433
989,1,1537,1549,1566,1561,1543,1554,1569,1564
990,1,1549,1551,1568,1566,1554,1555,1570,1569
991,1,1561,1566,1433,1441,1564,1569,1447,1451
992,1,1566,1568,1430,1433,1569,1570,1444,1447
993,1,1219,1222,1538,1539,1276,1279,1571,1572
994,1,1222,1226,1540,1538,1279,1283,1573,1571
995,1,1539,1538,1541,1542,1572,1571,1574,1575
996,1,1538,1540,1543,1541,1571,1573,1576,1574
997,1,1276,1279,1571,1572,1285,1288,1577,1578
998,1,1279,1283,1573,1571,1288,1292,1579,1577
999,1,1572,1571,1574,1575,1578,1577,1580,1581
1000,1,1571,1573,1576,1574,1577,1579,1582,1580
1001,1,1226,1259,1552,1540,1283,1307,1583,1573
1002,1,1259,1262,1553,1552,1307,1310,1584,1583
1003,1,1540,1552,1554,1543,1573,1583,1585,1576
1004,1,1552,1553,1555,1554,1583,1584,1586,1585
1005,1,1283,1307,1583,1573,1292,1313,1587,1579
1006,1,1307,1310,1584,1583,1313,1316,1588,1587
1007,1,1573,1583,1585,1576,1579,1587,1589,1582
1008,1,1583,1584,1586,1585,1587,1588,1590,1589
1009,1,1542,1541,1562,1563,1575,1574,1591,1592
1010,1,1541,1543,1564,1562,1574,1576,1593,1591
1011,1,1563,1562,1475,1478,1592,1591,1511,1514
1012,1,1562,1564,1451,1475,1591,1593,1493,1511
1013,1,1575,1574,1591,1592,1581,1580,1594,1595
1014,1,1574,1576,1593,1591,1580,1582,1596,1594
1015,1,1592,1591,1511,1514,1595,1594,1517,1520
1016,1,1591,1593,1493,1511,1594,1596,1502,1517
1017,1,1543,1554,1569,1564,1576,1585,1597,1593
1018,1,1554,1555,1570,1569,1585,1586,1598,1597
1019,1,1564,1569,1447,1451,1593,1597,1489,1493
1020,1,1569,1570,1444,1447,1597,1598,1486,1489
1021,1,1576,1585,1597,1593,1582,1589,1599,1596
1022,1,1585,1586,1598,1597,1589,1590,1600,1599
1023,1,1593,1597,1489,1493,1596,1599,1498,1502
1024,1,1597,1598,1486,1489,1599,1600,1495,1498
1025,1,557,1601,1602,558,559,1603,1604,560
1026,1,1601,1605,1606,1602,1603,1607,1608,1604
1027,1,558,1602,1609,563,560,1604,1610,564
1028,1,1602,1606,1611,1609,1604,1608,1612,1610
1029,1,559,1603,1604,560,567,1613,1614,568
1030,1,1603,1607,1608,1604,1613,1615,1616,1614
1031,1,560,1604,1610,564,568,1614,1617,570
1032,1,1604,1608,1612,1610,1614,1616,1618,1617
1033,1,1605,1619,1620,1606,1607,1621,1622,1608
1034,1,1619,1623,1624,1620,1621,1625,1626,1622
1035,1,1606,1620,1627,1611,1608,1622,1628,1612
1036,1,1620,1624,1629,1627,1622,1626,1630,1628
1037,1,1607,1621,1622,1608,1615,1631,1632,1616
1038,1,1621,1625,1626,1622,1631,1633,1634,1632
1039,1,1608,1622,1628,1612,1616,1632,1635,1618
1040,1,1622,1626,1630,1628,1632,1634,1636,1635
1041,1,563,1609,1637,582,564,1610,1638,583
1042,1,1609,1611,1639,1637,1610,1612,1640,1638
1043,1,582,1637,1641,470,583,1638,1642,471
1044,1,1637,1639,1643,1641,1638,1640,1644,1642
1045,1,564,1610,1638,583,570,1617,1645,585
1046,1,1610,1612,1640,1638,1617,1618,1646,1645
1047,1,583,1638,1642,471,585,1645,1647,475
1048,1,1638,1640,1644,1642,1645,1646,1648,1647
1049,1,1611,1627,1649,1639,1612,1628,1650,1640
1050,1,1627,1629,1651,1649,1628,1630,1652,1650
1051,1,1639,1649,1653,1643,1640,1650,1654,1644
1052,1,1649,1651,1655,1653,1650,1652,1656,1654
1053,1,1612,1628,1650,1640,1618,1635,1657,1646
1054,1,1628,1630,1652,1650,1635,1636,1658,1657
1055,1,1640,1650,1654,1644,1646,1657,1659,1648
1056,1,1650,1652,1656,1654,1657,1658,1660,1659
1057,1,567,1613,1614,568,606,1661,1662,607
1058,1,1613,1615,1616,1614,1661,1663,1664,1662
1059,1,568,1614,1617,570,607,1662,1665,609
1060,1,1614,1616,1618,1617,1662,1664,1666,1665
1061,1,606,1661,1662,607,612,1667,1668,613
1062,1,1661,1663,1664,1662,1667,1669,1670,1668
1063,1,607,1662,1665,609,613,1668,1671,615
1064,1,1662,1664,1666,1665,1668,1670,1672,1671
1065,1,1615,1631,1632,1616,1663,1673,1674,1664
1066,1,1631,1633,1634,1632,1673,1675,1676,1674
1067,1,1616,1632,1635,1618,1664,1674,1677,1666
1068,1,1632,1634,1636,1635,1674,1676,1678,1677
1069,1,1663,1673,1674,1664,1669,1679,1680,1670
1070,1,1673,1675,1676,1674,1679,1681,1682,1680
1071,1,1664,1674,1677,1666,1670,1680,1683,1672
1072,1,1674,1676,1678,1677,1680,1682,1684,1683
1073,1,570,1617,1645,585,609,1665,1685,623
1074,1,1617,1618,1646,1645,1665,1666,1686,1685
1075,1,585,1645,1647,475,623,1685,1687,521
1076,1,1645,1646,1648,1647,1685,1686,1688,1687
1077,1,609,1665,1685,623,615,1671,1689,625
1078,1,1665,1666,1686,1685,1671,1672,1690,1689
1079,1,623,1685,1687,521,625,1689,1691,525
1080,1,1685,1686,1688,1687,1689,1690,1692,1691
1081,1,1618,1635,1657,1646,1666,1677,1693,1686
1082,1,1635,1636,1658,1657,1677,1678,1694,1693
1083,1,1646,1657,1659,1648,1686,1693,1695,1688
1084,1,1657,1658,1660,1659,1693,1694,1696,1695
1085,1,1666,1677,1693,1686,1672,1683,1697,1690
1086,1,1677,1678,1694,1693,1683,1684,1698,1697
1087,1,1686,1693,1695,1688,1690,1697,1699,1692
1088,1,1693,1694,1696,1695,1697,1698,1700,1699
1089,1,470,1641,1701,1702,471,1642,1703,1704
1090,1,1641,1643,1705,1701,1642,1644,1706,1703
1091,1,1702,1701,1707,1708,1704,1703,1709,1710
1092,1,1701,1705,1711,1707,1703,1706,1712,1709
1093,1,471,1642,1703,1704,475,1647,1713,1714
1094,1,1642,1644,1706,1703,1647,1648,1715,1713
1095,1,1704,1703,1709,1710,1714,1713,1716,1717
1096,1,1703,1706,1712,1709,1713,1715,1718,1716
1097,1,1643,1653,1719,1705,1644,1654,1720,1706
1098,1,1653,1655,1721,1719,1654,1656,1722,1720
1099,1,1705,1719,1723,1711,1706,1720,1724,1712
1100,1,1719,1721,1725,1723,1720,1722,1726,1724
1101,1,1644,1654,1720,1706,1648,1659,1727,1715
1102,1,1654,1656,1722,1720,1659,1660,1728,1727
1103,1,1706,1720,1724,1712,1715,1727,1729,1718
1104,1,1720,1722,1726,1724,1727,1728,1730,1729
1105,1,1708,1707,1731,1732,1710,1709,1733,1734
1106,1,1707,1711,1735,1731,1709,1712,1736,1733
1107,1,1732,1731,1737,32,1734,1733,1738,34
1108,1,1731,1735,1739,1737,1733,1736,1740,1738
1109,1,1710,1709,1733,1734,1717,1716,1741,1742
1110,1,1709,1712,1736,1733,1716,1718,1743,1741
1111,1,1734,1733,1738,34,1742,1741,1744,42
1112,1,1733,1736,1740,1738,1741,1743,1745,1744
1113,1,1711,1723,1746,1735,1712,1724,1747,1736
1114,1,1723,1725,1748,1746,1724,1726,1749,1747
1115,1,1735,1746,1750,1739,1736,1747,1751,1740
1116,1,1746,1748,1752,1750,1747,1749,1753,1751
1117,1,1712,1724,1747,1736,1718,1729,1754,1743
1118,1,1724,1726,1749,1747,1729,1730,1755,1754
1119,1,1736,1747,1751,1740,1743,1754,1756,1745
1120,1,1747,1749,1753,1751,1754,1755,1757,1756
1121,1,475,1647,1713,1714,521,1687,1758,1759
1122,1,1647,1648,1715,1713,1687,1688,1760,1758
1123,1,1714,1713,1716,1717,1759,1758,1761,1762
1124,1,1713,1715,1718,1716,1758,1760,1763,1761
1125,1,521,1687,1758,1759,525,1691,1764,1765
1126,1,1687,1688,1760,1758,1691,1692,1766,1764
1127,1,1759,1758,1761,1762,1765,1764,1767,1768
1128,1,1758,1760,1763,1761,1764,1766,1769,1767
1129,1,1648,1659,1727,1715,1688,1695,1770,1760
1130,1,1659,1660,1728,1727,1695,1696,1771,1770
1131,1,1715,1727,1729,1718,1760,1770,1772,1763
1132,1,1727,1728,1730,1729,1770,1771,1773,1772
1133,1,1688,1695,1770,1760,1692,1699,1774,1766
1134,1,1695,1696,1771,1770,1699,1700,1775,1774
1135,1,1760,1770,1772,1763,1766,1774,1776,1769
1136,1,1770,1771,1773,1772,1774,1775,1777,1776
1137,1,1717,1716,1741,1742,1762,1761,1778,1779
1138,1,1716,1718,1743,1741,1761,1763,1780,1778
1139,1,1742,1741,1744,42,1779,1778,1781,96
1140,1,1741,1743,1745,1744,1778,1780,1782,1781
1141,1,1762,1761,1778,1779,1768,1767,1783,1784
1142,1,1761,1763,1780,1778,1767,1769,1785,1783
1143,1,1779,1778,1781,96,1784,1783,1786,102
1144,1,1778,1780,1782,1781,1783,1785,1787,1786
1145,1,1718,1729,1754,1743,1763,1772,1788,1780
1146,1,1729,1730,1755,1754,1772,1773,1789,1788
1147,1,1743,1754,1756,1745,1780,1788,1790,1782
1148,1,1754,1755,1757,1756,1788,1789,1791,1790
1149,1,1763,1772,1788,1780,1769,1776,1792,1785
1150,1,1772,1773,1789,1788,1776,1777,1793,1792
1151,1,1780,1788,1790,1782,1785,1792,1794,1787
1152,1,1788,1789,1791,1790,1792,1793,1795,1794
1153,1,32,1737,1796,146,34,1738,1797,147
1154,1,1737,1739,1798,1796,1738,1740,1799,1797
1155,1,146,1796,1800,150,147,1797,1801,151
1156,1,1796,1798,1802,1800,1797,1799,1803,1801
1157,1,34,1738,1797,147,42,1744,1804,153
1158,1,1738,1740,1799,1797,1744,1745,1805,1804
1159,1,147,1797,1801,151,153,1804,1806,155
1160,1,1797,1799,1803,1801,1804,1805,1807,1806
1161,1,1739,1750,1808,1798,1740,1751,1809,1799
1162,1,1750,1752,1810,1808,1751,1753,1811,1809
1163,1,1798,1808,1812,1802,1799,1809,1813,1803
1164,1,1808,1810,1814,1812,1809,1811,1815,1813
1165,1,1740,1751,1809,1799,1745,1756,1816,1805
1166,1,1751,1753,1811,1809,1756,1757,1817,1816
1167,1,1799,1809,1813,1803,1805,1816,1818,1807
1168,1,1809,1811,1815,1813,1816,1817,1819,1818
1169,1,150,1800,1820,176,151,1801,1821,177
1170,1,1800,1802,1822,1820,1801,1803,1823,1821
1171,1,176,1820,1824,180,177,1821,1825,181
1172,1,1820,1822,1826,1824,1821,1823,1827,1825
1173,1,151,1801,1821,177,155,1806,1828,183
1174,1,1801,1803,1823,1821,1806,1807,1829,1828
1175,1,177,1821,1825,181,183,1828,1830,185
1176,1,1821,1823,1827,1825,1828,1829,1831,1830
1177,1,1802,1812,1832,1822,1803,1813,1833,1823
1178,1,1812,1814,1834,1832,1813,1815,1835,1833
1179,1,1822,1832,1836,1826,1823,1833,1837,1827
1180,1,1832,1834,1838,1836,1833,1835,1839,1837
1181,1,1803,1813,1833,1823,1807,1818,1840,1829
1182,1,1813,1815,1835,1833,1818,1819,1841,1840
1183,1,1823,1833,1837,1827,1829,1840,1842,1831
1184,1,1833,1835,1839,1837,1840,1841,1843,1842
1185,1,42,1744,1804,153,96,1781,1844,199
1186,1,1744,1745,1805,1804,1781,1782,1845,1844
1187,1,153,1804,1806,155,199,1844,1846,201
1188,1,1804,1805,1807,1806,1844,1845,1847,1846
1189,1,96,1781,1844,199,102,1786,1848,203
1190,1,1781,1782,1845,1844,1786,1787,1849,1848
1191,1,199,1844,1846,201,203,1848,1850,205
1192,1,1844,1845,1847,1846,1848,1849,1851,1850
1193,1,1745,1756,1816,1805,1782,1790,1852,1845
1194,1,1756,1757,1817,1816,1790,1791,1853,1852
1195,1,1805,1816,1818,1807,1845,1852,1854,1847
1196,1,1816,1817,1819,1818,1852,1853,1855,1854
1197,1,1782,1790,1852,1845,1787,1794,1856,1849
1198,1,1790,1791,1853,1852,1794,1795,1857,1856
1199,1,1845,1852,1854,1847,1849,1856,1858,1851
1200,1,1852,1853,1855,1854,1856,1857,1859,1858
1201,1,155,1806,1828,183,201,1846,1860,219
1202,1,1806,1807,1829,1828,1846,1847,1861,1860
1203,1,183,1828,1830,185,219,1860,1862,221
1204,1,1828,1829,1831,1830,1860,1861,1863,1862
1205,1,201,1846,1860,219,205,1850,1864,223
1206,1,1846,1847,1861,1860,1850,1851,1865,1864
1207,1,219,1860,1862,221,223,1864,1866,225
1208,1,1860,1861,1863,1862,1864,1865,1867,1866
1209,1,1807,1818,1840,1829,1847,1854,1868,1861
1210,1,1818,1819,1841,1840,1854,1855,1869,1868
1211,1,1829,1840,1842,1831,1861,1868,1870,1863
1212,1,1840,1841,1843,1842,1868,1869,1871,1870
1213,1,1847,1854,1868,1861,1851,1858,1872,1865
1214,1,1854,1855,1869,1868,1858,1859,1873,1872
1215,1,1861,1868,1870,1863,1865,1872,1874,1867
1216,1,1868,1869,1871,1870,1872,1873,1875,1874
1217,1,453,452,1876,1877,455,454,1878,1879
1218,1,452,456,1880,1876,454,457,1881,1878
1219,1,1877,1876,1882,1883,1879,1878,1884,1885
1220,1,1876,1880,1886,1882,1878,1881,1887,1884
1221,1,455,454,1878,1879,462,461,1888,1889
1222,1,454,457,1881,1878,461,463,1890,1888
1223,1,1879,1878,1884,1885,1889,1888,1891,1892
1224,1,1878,1881,1887,1884,1888,1890,1893,1891
1225,1,456,468,1894,1880,457,469,1895,1881
1226,1,468,470,1702,1894,469,471,1704,1895
1227,1,1880,1894,1896,1886,1881,1895,1897,1887
1228,1,1894,1702,1708,1896,1895,1704,1710,1897
1229,1,457,469,1895,1881,463,474,1898,1890
1230,1,469,471,1704,1895,474,475,1714,1898
1231,1,1881,1895,1897,1887,1890,1898,1899,1893
1232,1,1895,1704,1710,1897,1898,1714,1717,1899
1233,1,1883,1882,1900,1901,1885,1884,1902,1903
1234,1,1882,1886,1904,1900,1884,1887,1905,1902
1235,1,1901,1900,2,1,1903,1902,6,5
1236,1,1900,1904,9,2,1902,1905,11,6
1237,1,1885,1884,1902,1903,1892,1891,1906,1907
1238,1,1884,1887,1905,1902,1891,1893,1908,1906
1239,1,1903,1902,6,5,1907,1906,20,19
1240,1,1902,1905,11,6,1906,1908,23,20
1241,1,1886,1896,1909,1904,1887,1897,1910,1905
1242,1,1896,1708,1732,1909,1897,1710,1734,1910
1243,1,1904,1909,28,9,1905,1910,30,11
1244,1,1909,1732,32,28,1910,1734,34,30
1245,1,1887,1897,1910,1905,1893,1899,1911,1908
1246,1,1897,1710,1734,1910,1899,1717,1742,1911
1247,1,1905,1910,30,11,1908,1911,40,23
1248,1,1910,1734,34,30,1911,1742,42,40
1249,1,462,461,1888,1889,510,509,1912,1913
1250,1,461,463,1890,1888,509,511,1914,1912
1251,1,1889,1888,1891,1892,1913,1912,1915,1916
1252,1,1888,1890,1893,1891,1912,1914,1917,1915
1253,1,510,509,1912,1913,516,515,1918,1919
1254,1,509,511,1914,1912,515,517,1920,1918
1255,1,1913,1912,1915,1916,1919,1918,1921,1922
1256,1,1912,1914,1917,1915,1918,1920,1923,1921
1257,1,463,474,1898,1890,511,520,1924,1914
1258,1,474,475,1714,1898,520,521,1759,1924
1259,1,1890,1898,1899,1893,1914,1924,1925,1917
1260,1,1898,1714,1717,1899,1924,1759,1762,1925
1261,1,511,520,1924,1914,517,524,1926,1920
1262,1,520,521,1759,1924,524,525,1765,1926
1263,1,1914,1924,1925,1917,1920,1926,1927,1923
1264,1,1924,1759,1762,1925,1926,1765,1768,1927
1265,1,1892,1891,1906,1907,1916,1915,1928,1929
1266,1,1891,1893,1908,1906,1915,1917,1930,1928
1267,1,1907,1906,20,19,1929,1928,77,76
1268,1,1906,1908,23,20,1928,1930,80,77
1269,1,1916,1915,1928,1929,1922,1921,1931,1932
1270,1,1915,1917,1930,1928,1921,1923,1933,1931
1271,1,1929,1928,77,76,1932,1931,86,85
1272,1,1928,1930,80,77,1931,1933,89,86
1273,1,1893,1899,1911,1908,1917,1925,1934,1930
1274,1,1899,1717,1742,1911,1925,1762,1779,1934
1275,1,1908,1911,40,23,1930,1934,94,80
1276,1,1911,1742,42,40,1934,1779,96,94
1277,1,1917,1925,1934,1930,1923,1927,1935,1933
1278,1,1925,1762,1779,1934,1927,1768,1784,1935
1279,1,1930,1934,94,80,1933,1935,100,89
1280,1,1934,1779,96,94,1935,1784,102,100
1281,1,1936,1937,1938,1939,1940,1941,1942,1943
1282,1,1937,1944,1945,1938,1941,1946,1947,1942
1283,1,1939,1938,1948,1949,1943,1942,1950,1951
1284,1,1938,1945,1952,1948,1942,1947,1953,1950
1285,1,1940,1941,1942,1943,1954,1955,1956,1957
1286,1,1941,1946,1947,1942,1955,1958,1959,1956
1287,1,1943,1942,1950,1951,1957,1956,1960,1961
1288,1,1942,1947,1953,1950,1956,1959,1962,1960
1289,1,1944,1963,1964,1945,1946,1965,1966,1947
1290,1,1963,1967,1968,1964,1965,1969,1970,1966
1291,1,1945,1964,1971,1952,1947,1966,1972,1953
1292,1,1964,1968,1973,1971,1966,1970,1974,1972
1293,1,1946,1965,1966,1947,1958,1975,1976,1959
1294,1,1965,1969,1970,1966,1975,1977,1978,1976
1295,1,1947,1966,1972,1953,1959,1976,1979,1962
1296,1,1966,1970,1974,1972,1976,1978,1980,1979
1297,1,1949,1948,1981,1982,1951,1950,1983,1984
1298,1,1948,1952,1985,1981,1950,1953,1986,1983
1299,1,1982,1981,726,626,1984,1983,728,630
1300,1,1981,1985,730,726,1983,1986,732,728
1301,1,1951,1950,1983,1984,1961,1960,1987,1988
1302,1,1950,1953,1986,1983,1960,1962,1989,1987
1303,1,1984,1983,728,630,1988,1987,738,644
1304,1,1983,1986,732,728,1987,1989,740,738
1305,1,1952,1971,1990,1985,1953,1972,1991,1986
1306,1,1971,1973,1992,1990,1972,1974,1993,1991
1307,1,1985,1990,744,730,1986,1991,746,732
1308,1,1990,1992,557,744,1991,1993,559,746
1309,1,1953,1972,1991,1986,1962,1979,1994,1989
1310,1,1972,1974,1993,1991,1979,1980,1995,1994
1311,1,1986,1991,746,732,1989,1994,750,740
1312,1,1991,1993,559,746,1994,1995,567,750
1313,1,1954,1955,1956,1957,1996,1997,1998,1999
1314,1,1955,1958,1959,1956,1997,2000,2001,1998
1315,1,1957,1956,1960,1961,1999,1998,2002,2003
1316,1,1956,1959,1962,1960,1998,2001,2004,2002
1317,1,1996,1997,1998,1999,2005,2006,2007,2008
1318,1,1997,2000,2001,1998,2006,2009,2010,2007
1319,1,1999,1998,2002,2003,2008,2007,2011,2012
1320,1,1998,2001,2004,2002,2007,2010,2013,2011
1321,1,1958,1975,1976,1959,2000,2014,2015,2001
1322,1,1975,1977,1978,1976,2014,2016,2017,2015
1323,1,1959,1976,1979,1962,2001,2015,2018,2004
1324,1,1976,1978,1980,1979,2015,2017,2019,2018
1325,1,2000,2014,2015,2001,2009,2020,2021,2010
1326,1,2014,2016,2017,2015,2020,2022,2023,2021
1327,1,2001,2015,2018,2004,2010,2021,2024,2013
1328,1,2015,2017,2019,2018,2021,2023,2025,2024
1329,1,1961,1960,1987,1988,2003,2002,2026,2027
1330,1,1960,1962,1989,1987,2002,2004,2028,2026
1331,1,1988,1987,738,644,2027,2026,771,686
1332,1,1987,1989,740,738,2026,2028,773,771
1333,1,2003,2002,2026,2027,2012,2011,2029,2030
1334,1,2002,2004,2028,2026,2011,2013,2031,2029
1335,1,2027,2026,771,686,2030,2029,777,695
1336,1,2026,2028,773,771,2029,2031,779,777
1337,1,1962,1979,1994,1989,2004,2018,2032,2028
1338,1,1979,1980,1995,1994,2018,2019,2033,2032
1339,1,1989,1994,750,740,2028,2032,783,773
1340,1,1994,1995,567,750,2032,2033,606,783
1341,1,2004,2018,2032,2028,2013,2024,2034,2031
1342,1,2018,2019,2033,2032,2024,2025,2035,2034
1343,1,2028,2032,783,773,2031,2034,786,779
1344,1,2032,2033,606,783,2034,2035,612,786
1345,1,263,357,2036,2037,265,358,2038,2039
1346,1,357,359,2040,2036,358,360,2041,2038
1347,1,2037,2036,2042,2043,2039,2038,2044,2045
1348,1,2036,2040,2046,2042,2038,2041,2047,2044
1349,1,265,358,2038,2039,272,363,2048,2049
1350,1,358,360,2041,2038,363,364,2050,2048
1351,1,2039,2038,2044,2045,2049,2048,2051,2052
1352,1,2038,2041,2047,2044,2048,2050,2053,2051
1353,1,359,367,2054,2040,360,368,2055,2041
1354,1,367,180,2056,2054,368,181,2057,2055
1355,1,2040,2054,2058,2046,2041,2055,2059,2047
1356,1,2054,2056,2060,2058,2055,2057,2061,2059
1357,1,360,368,2055,2041,364,370,2062,2050
1358,1,368,181,2057,2055,370,185,2063,2062
1359,1,2041,2055,2059,2047,2050,2062,2064,2053
1360,1,2055,2057,2061,2059,2062,2063,2065,2064
1361,1,2043,2042,2066,2067,2045,2044,2068,2069
1362,1,2042,2046,2070,2066,2044,2047,2071,2068
1363,1,2067,2066,2072,2073,2069,2068,2074,2075
1364,1,2066,2070,2076,2072,2068,2071,2077,2074
1365,1,2045,2044,2068,2069,2052,2051,2078,2079
1366,1,2044,2047,2071,2068,2051,2053,2080,2078
1367,1,2069,2068,2074,2075,2079,2078,2081,2082
1368,1,2068,2071,2077,2074,2078,2080,2083,2081
1369,1,2046,2058,2084,2070,2047,2059,2085,2071
1370,1,2058,2060,2086,2084,2059,2061,2087,2085
1371,1,2070,2084,2088,2076,2071,2085,2089,2077
1372,1,2084,2086,2090,2088,2085,2087,2091,2089
1373,1,2047,2059,2085,2071,2053,2064,2092,2080
1374,1,2059,2061,2087,2085,2064,2065,2093,2092
1375,1,2071,2085,2089,2077,2080,2092,2094,2083
1376,1,2085,2087,2091,2089,2092,2093,2095,2094
1377,1,272,363,2048,2049,310,391,2096,2097
1378,1,363,364,2050,2048,391,392,2098,2096
1379,1,2049,2048,2051,2052,2097,2096,2099,2100
1380,1,2048,2050,2053,2051,2096,2098,2101,2099
1381,1,310,391,2096,2097,316,395,2102,2103
1382,1,391,392,2098,2096,395,396,2104,2102
1383,1,2097,2096,2099,2100,2103,2102,2105,2106
1384,1,2096,2098,2101,2099,2102,2104,2107,2105
1385,1,364,370,2062,2050,392,398,2108,2098
1386,1,370,185,2063,2062,398,221,2109,2108
1387,1,2050,2062,2064,2053,2098,2108,2110,2101
1388,1,2062,2063,2065,2064,2108,2109,2111,2110
1389,1,392,398,2108,2098,396,400,2112,2104
1390,1,398,221,2109,2108,400,225,2113,2112
1391,1,2098,2108,2110,2101,2104,2112,2114,2107
1392,1,2108,2109,2111,2110,2112,2113,2115,2114
1393,1,2052,2051,2078,2079,2100,2099,2116,2117
1394,1,2051,2053,2080,2078,2099,2101,2118,2116
1395,1,2079,2078,2081,2082,2117,2116,2119,2120
1396,1,2078,2080,2083,2081,2116,2118,2121,2119
1397,1,2100,2099,2116,2117,2106,2105,2122,2123
1398,1,2099,2101,2118,2116,2105,2107,2124,2122
1399,1,2117,2116,2119,2120,2123,2122,2125,2126
1400,1,2116,2118,2121,2119,2122,2124,2127,2125
1401,1,2053,2064,2092,2080,2101,2110,2128,2118
1402,1,2064,2065,2093,2092,2110,2111,2129,2128
1403,1,2080,2092,2094,2083,2118,2128,2130,2121
1404,1,2092,2093,2095,2094,2128,2129,2131,2130
1405,1,2101,2110,2128,2118,2107,2114,2132,2124
1406,1,2110,2111,2129,2128,2114,2115,2133,2132
1407,1,2118,2128,2130,2121,2124,2132,2134,2127
1408,1,2128,2129,2131,2130,2132,2133,2135,2134
1409,1,2136,2137,2138,2139,2140,2141,2142,2143
1410,1,2137,2144,2145,2138,2141,2146,2147,2142
1411,1,2139,2138,2148,2149,2143,2142,2150,2151
1412,1,2138,2145,2152,2148,2142,2147,2153,2150
1413,1,2140,2141,2142,2143,2154,2155,2156,2157
1414,1,2141,2146,2147,2142,2155,2158,2159,2156
1415,1,2143,2142,2150,2151,2157,2156,2160,2161
1416,1,2142,2147,2153,2150,2156,2159,2162,2160
1417,1,2144,2163,2164,2145,2146,2165,2166,2147
1418,1,2163,1936,1939,2164,2165,1940,1943,2166
1419,1,2145,2164,2167,2152,2147,2166,2168,2153
1420,1,2164,1939,1949,2167,2166,1943,1951,2168
1421,1,2146,2165,2166,2147,2158,2169,2170,2159
1422,1,2165,1940,1943,2166,2169,1954,1957,2170
1423,1,2147,2166,2168,2153,2159,2170,2171,2162
1424,1,2166,1943,1951,2168,2170,1957,1961,2171
1425,1,2149,2148,2172,2173,2151,2150,2174,2175
1426,1,2148,2152,2176,2172,2150,2153,2177,2174
1427,1,2173,2172,2178,2179,2175,2174,2180,2181
1428,1,2172,2176,2182,2178,2174,2177,2183,2180
1429,1,2151,2150,2174,2175,2161,2160,2184,2185
1430,1,2150,2153,2177,2174,2160,2162,2186,2184
1431,1,2175,2174,2180,2181,2185,2184,2187,2188
1432,1,2174,2177,2183,2180,2184,2186,2189,2187
1433,1,2152,2167,2190,2176,2153,2168,2191,2177
1434,1,2167,1949,1982,2190,2168,1951,1984,2191
1435,1,2176,2190,2192,2182,2177,2191,2193,2183
1436,1,2190,1982,626,2192,2191,1984,630,2193
1437,1,2153,2168,2191,2177,2162,2171,2194,2186
1438,1,2168,1951,1984,2191,2171,1961,1988,2194
1439,1,2177,2191,2193,2183,2186,2194,2195,2189
1440,1,2191,1984,630,2193,2194,1988,644,2195
1441,1,2154,2155,2156,2157,2196,2197,2198,2199
1442,1,2155,2158,2159,2156,2197,2200,2201,2198
1443,1,2157,2156,2160,2161,2199,2198,2202,2203
1444,1,2156,2159,2162,2160,2198,2201,2204,2202
1445,1,2196,2197,2198,2199,2205,2206,2207,2208
1446,1,2197,2200,2201,2198,2206,2209,2210,2207
1447,1,2199,2198,2202,2203,2208,2207,2211,2212
1448,1,2198,2201,2204,2202,2207,2210,2213,2211
1449,1,2158,2169,2170,2159,2200,2214,2215,2201
1450,1,2169,1954,1957,2170,2214,1996,1999,2215
1451,1,2159,2170,2171,2162,2201,2215,2216,2204
1452,1,2170,1957,1961,2171,2215,1999,2003,2216
1453,1,2200,2214,2215,2201,2209,2217,2218,2210
1454,1,2214,1996,1999,2215,2217,2005,2008,2218
1455,1,2201,2215,2216,2204,2210,2218,2219,2213
1456,1,2215,1999,2003,2216,2218,2008,2012,2219
1457,1,2161,2160,2184,2185,2203,2202,2220,2221
1458,1,2160,2162,2186,2184,2202,2204,2222,2220
1459,1,2185,2184,2187,2188,2221,2220,2223,2224
1460,1,2184,2186,2189,2187,2220,2222,2225,2223
1461,1,2203,2202,2220,2221,2212,2211,2226,2227
1462,1,2202,2204,2222,2220,2211,2213,2228,2226
1463,1,2221,2220,2223,2224,2227,2226,2229,2230
1464,1,2220,2222,2225,2223,2226,2228,2231,2229
1465,1,2162,2171,2194,2186,2204,2216,2232,2222
1466,1,2171,1961,1988,2194,2216,2003,2027,2232
1467,1,2186,2194,2195,2189,2222,2232,2233,2225
1468,1,2194,1988,644,2195,2232,2027,686,2233
1469,1,2204,2216,2232,2222,2213,2219,2234,2228
1470,1,2216,2003,2027,2232,2219,2012,2030,2234
1471,1,2222,2232,2233,2225,2228,2234,2235,2231
1472,1,2232,2027,686,2233,2234,2030,695,2235
1473,1,2179,2178,2236,2237,2181,2180,2238,2239
1474,1,2178,2182,2240,2236,2180,2183,2241,2238
1475,1,2237,2236,2242,2243,2239,2238,2244,2245
1476,1,2236,2240,2246,2242,2238,2241,2247,2244
1477,1,2181,2180,2238,2239,2188,2187,2248,2249
1478,1,2180,2183,2241,2238,2187,2189,2250,2248
1479,1,2239,2238,2244,2245,2249,2248,2251,2252
1480,1,2238,2241,2247,2244,2248,2250,2253,2251
1481,1,2182,2192,2254,2240,2183,2193,2255,2241
1482,1,2192,626,629,2254,2193,630,633,2255
1483,1,2240,2254,2256,2246,2241,2255,2257,2247
1484,1,2254,629,639,2256,2255,633,641,2257
1485,1,2183,2193,2255,2241,2189,2195,2258,2250
1486,1,2193,630,633,2255,2195,644,647,2258
1487,1,2241,2255,2257,2247,2250,2258,2259,2253
1488,1,2255,633,641,2257,2258,647,651,2259
1489,1,2243,2242,2260,2261,2245,2244,2262,2263
1490,1,2242,2246,2264,2260,2244,2247,2265,2262
1491,1,2261,2260,2266,2267,2263,2262,2268,2269
1492,1,2260,2264,2270,2266,2262,2265,2271,2268
1493,1,2245,2244,2262,2263,2252,2251,2272,2273
1494,1,2244,2247,2265,2262,2251,2253,2274,2272
1495,1,2263,2262,2268,2269,2273,2272,2275,2276
1496,1,2262,2265,2271,2268,2272,2274,2277,2275
1497,1,2246,2256,2278,2264,2247,2257,2279,2265
1498,1,2256,639,672,2278,2257,641,674,2279
1499,1,2264,2278,2280,2270,2265,2279,2281,2271
1500,1,2278,672,453,2280,2279,674,455,2281
1501,1,2247,2257,2279,2265,2253,2259,2282,2274
1502,1,2257,641,674,2279,2259,651,678,2282
1503,1,2265,2279,2281,2271,2274,2282,2283,2277
1504,1,2279,674,455,2281,2282,678,462,2283
1505,1,2188,2187,2248,2249,2224,2223,2284,2285
1506,1,2187,2189,2250,2248,2223,2225,2286,2284
1507,1,2249,2248,2251,2252,2285,2284,2287,2288
1508,1,2248,2250,2253,2251,2284,2286,2289,2287
1509,1,2224,2223,2284,2285,2230,2229,2290,2291
1510,1,2223,2225,2286,2284,2229,2231,2292,2290
1511,1,2285,2284,2287,2288,2291,2290,2293,2294
1512,1,2284,2286,2289,2287,2290,2292,2295,2293
1513,1,2189,2195,2258,2250,2225,2233,2296,2286
1514,1,2195,644,647,2258,2233,686,689,2296
1515,1,2250,2258,2259,2253,2286,2296,2297,2289
1516,1,2258,647,651,2259,2296,689,693,2297
1517,1,2225,2233,2296,2286,2231,2235,2298,2292
1518,1,2233,686,689,2296,2235,695,698,2298
1519,1,2286,2296,2297,2289,2292,2298,2299,2295
1520,1,2296,689,693,2297,2298,698,702,2299
1521,1,2252,2251,2272,2273,2288,2287,2300,2301
1522,1,2251,2253,2274,2272,2287,2289,2302,2300
1523,1,2273,2272,2275,2276,2301,2300,2303,2304
1524,1,2272,2274,2277,2275,2300,2302,2305,2303
1525,1,2288,2287,2300,2301,2294,2293,2306,2307
1526,1,2287,2289,2302,2300,2293,2295,2308,2306
1527,1,2301,2300,2303,2304,2307,2306,2309,2310
1528,1,2300,2302,2305,2303,2306,2308,2311,2309
1529,1,2253,2259,2282,2274,2289,2297,2312,2302
1530,1,2259,651,678,2282,2297,693,717,2312
1531,1,2274,2282,2283,2277,2302,2312,2313,2305
1532,1,2282,678,462,2283,2312,717,510,2313
1533,1,2289,2297,2312,2302,2295,2299,2314,2308
1534,1,2297,693,717,2312,2299,702,720,2314
1535,1,2302,2312,2313,2305,2308,2314,2315,2311
1536,1,2312,717,510,2313,2314,720,516,2315
1537,1,2267,2266,2316,2317,2269,2268,2318,2319
1538,1,2266,2270,2320,2316,2268,2271,2321,2318
1539,1,2317,2316,2322,2323,2319,2318,2324,2325
1540,1,2316,2320,2326,2322,2318,2321,2327,2324
1541,1,2269,2268,2318,2319,2276,2275,2328,2329
1542,1,2268,2271,2321,2318,2275,2277,2330,2328
1543,1,2319,2318,2324,2325,2329,2328,2331,2332
1544,1,2318,2321,2327,2324,2328,2330,2333,2331
1545,1,2270,2280,2334,2320,2271,2281,2335,2321
1546,1,2280,453,1877,2334,2281,455,1879,2335
1547,1,2320,2334,2336,2326,2321,2335,2337,2327
1548,1,2334,1877,1883,2336,2335,1879,1885,2337
1549,1,2271,2281,2335,2321,2277,2283,2338,2330
1550,1,2281,455,1879,2335,2283,462,1889,2338
1551,1,2321,2335,2337,2327,2330,2338,2339,2333
1552,1,2335,1879,1885,2337,2338,1889,1892,2339
1553,1,2323,2322,2340,2341,2325,2324,2342,2343
1554,1,2322,2326,2344,2340,2324,2327,2345,2342
1555,1,2341,2340,2346,2347,2343,2342,2348,2349
1556,1,2340,2344,2350,2346,2342,2345,2351,2348
1557,1,2325,2324,2342,2343,2332,2331,2352,2353
1558,1,2324,2327,2345,2342,2331,2333,2354,2352
1559,1,2343,2342,2348,2349,2353,2352,2355,2356
1560,1,2342,2345,2351,2348,2352,2354,2357,2355
1561,1,2326,2336,2358,2344,2327,2337,2359,2345
1562,1,2336,1883,1901,2358,2337,1885,1903,2359
1563,1,2344,2358,2360,2350,2345,2359,2361,2351
1564,1,2358,1901,1,2360,2359,1903,5,2361
1565,1,2327,2337,2359,2345,2333,2339,2362,2354
1566,1,2337,1885,1903,2359,2339,1892,1907,2362
1567,1,2345,2359,2361,2351,2354,2362,2363,2357
1568,1,2359,1903,5,2361,2362,1907,19,2363
1569,1,2276,2275,2328,2329,2304,2303,2364,2365
1570,1,2275,2277,2330,2328,2303,2305,2366,2364
1571,1,2329,2328,2331,2332,2365,2364,2367,2368
1572,1,2328,2330,2333,2331,2364,2366,2369,2367
1573,1,2304,2303,2364,2365,2310,2309,2370,2371
1574,1,2303,2305,2366,2364,2309,2311,2372,2370
1575,1,2365,2364,2367,2368,2371,2370,2373,2374
1576,1,2364,2366,2369,2367,2370,2372,2375,2373
1577,1,2277,2283,2338,2330,2305,2313,2376,2366
1578,1,2283,462,1889,2338,2313,510,1913,2376
1579,1,2330,2338,2339,2333,2366,2376,2377,2369
1580,1,2338,1889,1892,2339,2376,1913,1916,2377
1581,1,2305,2313,2376,2366,2311,2315,2378,2372
1582,1,2313,510,1913,2376,2315,516,1919,2378
1583,1,2366,2376,2377,2369,2372,2378,2379,2375
1584,1,2376,1913,1916,2377,2378,1919,1922,2379
1585,1,2332,2331,2352,2353,2368,2367,2380,2381
1586,1,2331,2333,2354,2352,2367,2369,2382,2380
1587,1,2353,2352,2355,2356,2381,2380,2383,2384
1588,1,2352,2354,2357,2355,2380,2382,2385,2383
1589,1,2368,2367,2380,2381,2374,2373,2386,2387
1590,1,2367,2369,2382,2380,2373,2375,2388,2386
1591,1,2381,2380,2383,2384,2387,2386,2389,2390
1592,1,2380,2382,2385,2383,2386,2388,2391,2389
1593,1,2333,2339,2362,2354,2369,2377,2392,2382
1594,1,2339,1892,1907,2362,2377,1916,1929,2392
1595,1,2354,2362,2363,2357,2382,2392,2393,2385
1596,1,2362,1907,19,2363,2392,1929,76,2393
1597,1,2369,2377,2392,2382,2375,2379,2394,2388
1598,1,2377,1916,1929,2392,2379,1922,1932,2394
1599,1,2382,2392,2393,2385,2388,2394,2395,2391
1600,1,2392,1929,76,2393,2394,1932,85,2395
1601,1,2347,2346,2396,2397,2349,2348,2398,2399
1602,1,2346,2350,2400,2396,2348,2351,2401,2398
1603,1,2397,2396,2402,2403,2399,2398,2404,2405
1604,1,2396,2400,2406,2402,2398,2401,2407,2404
1605,1,2349,2348,2398,2399,2356,2355,2408,2409
1606,1,2348,2351,2401,2398,2355,2357,2410,2408
1607,1,2399,2398,2404,2405,2409,2408,2411,2412
1608,1,2398,2401,2407,2404,2408,2410,2413,2411
1609,1,2350,2360,2414,2400,2351,2361,2415,2401
1610,1,2360,1,227,2414,2361,5,229,2415
1611,1,2400,2414,2416,2406,2401,2415,2417,2407
1612,1,2414,227,233,2416,2415,229,235,2417
1613,1,2351,2361,2415,2401,2357,2363,2418,2410
1614,1,2361,5,229,2415,2363,19,239,2418
1615,1,2401,2415,2417,2407,2410,2418,2419,2413
1616,1,2415,229,235,2417,2418,239,242,2419
1617,1,2403,2402,2420,2421,2405,2404,2422,2423
1618,1,2402,2406,2424,2420,2404,2407,2425,2422
1619,1,2421,2420,2426,2427,2423,2422,2428,2429
1620,1,2420,2424,2430,2426,2422,2425,2431,2428
1621,1,2405,2404,2422,2423,2412,2411,2432,2433
1622,1,2404,2407,2425,2422,2411,2413,2434,2432
1623,1,2423,2422,2428,2429,2433,2432,2435,2436
1624,1,2422,2425,2431,2428,2432,2434,2437,2435
1625,1,2406,2416,2438,2424,2407,2417,2439,2425
1626,1,2416,233,257,2438,2417,235,259,2439
1627,1,2424,2438,2440,2430,2425,2439,2441,2431
1628,1,2438,257,263,2440,2439,259,265,2441
1629,1,2407,2417,2439,2425,2413,2419,2442,2434
1630,1,2417,235,259,2439,2419,242,269,2442
1631,1,2425,2439,2441,2431,2434,2442,2443,2437
1632,1,2439,259,265,2441,2442,269,272,2443
1633,1,2356,2355,2408,2409,2384,2383,2444,2445
1634,1,2355,2357,2410,2408,2383,2385,2446,2444
1635,1,2409,2408,2411,2412,2445,2444,2447,2448
1636,1,2408,2410,2413,2411,2444,2446,2449,2447
1637,1,2384,2383,2444,2445,2390,2389,2450,2451
1638,1,2383,2385,2446,2444,2389,2391,2452,2450
1639,1,2445,2444,2447,2448,2451,2450,2453,2454
1640,1,2444,2446,2449,2447,2450,2452,2455,2453
1641,1,2357,2363,2418,2410,2385,2393,2456,2446
1642,1,2363,19,239,2418,2393,76,287,2456
1643,1,2410,2418,2419,2413,2446,2456,2457,2449
1644,1,2418,239,242,2419,2456,287,290,2457
1645,1,2385,2393,2456,2446,2391,2395,2458,2452
1646,1,2393,76,287,2456,2395,85,293,2458
1647,1,2446,2456,2457,2449,2452,2458,2459,2455
1648,1,2456,287,290,2457,2458,293,296,2459
1649,1,2412,2411,2432,2433,2448,2447,2460,2461
1650,1,2411,2413,2434,2432,2447,2449,2462,2460
1651,1,2433,2432,2435,2436,2461,2460,2463,2464
1652,1,2432,2434,2437,2435,2460,2462,2465,2463
1653,1,2448,2447,2460,2461,2454,2453,2466,2467
1654,1,2447,2449,2462,2460,2453,2455,2468,2466
1655,1,2461,2460,2463,2464,2467,2466,2469,2470
1656,1,2460,2462,2465,2463,2466,2468,2471,2469
1657,1,2413,2419,2442,2434,2449,2457,2472,2462
1658,1,2419,242,269,2442,2457,290,307,2472
1659,1,2434,2442,2443,2437,2462,2472,2473,2465
1660,1,2442,269,272,2443,2472,307,310,2473
1661,1,2449,2457,2472,2462,2455,2459,2474,2468
1662,1,2457,290,307,2472,2459,296,313,2474
1663,1,2462,2472,2473,2465,2468,2474,2475,2471
1664,1,2472,307,310,2473,2474,313,316,2475
1665,1,2427,2426,2476,2477,2429,2428,2478,2479
1666,1,2426,2430,2480,2476,2428,2431,2481,2478
1667,1,2477,2476,2482,2483,2479,2478,2484,2485
1668,1,2476,2480,2486,2482,2478,2481,2487,2484
1669,1,2429,2428,2478,2479,2436,2435,2488,2489
1670,1,2428,2431,2481,2478,2435,2437,2490,2488
1671,1,2479,2478,2484,2485,2489,2488,2491,2492
1672,1,2478,2481,2487,2484,2488,2490,2493,2491
1673,1,2430,2440,2494,2480,2431,2441,2495,2481
1674,1,2440,263,2037,2494,2441,265,2039,2495
1675,1,2480,2494,2496,2486,2481,2495,2497,2487
1676,1,2494,2037,2043,2496,2495,2039,2045,2497
1677,1,2431,2441,2495,2481,2437,2443,2498,2490
1678,1,2441,265,2039,2495,2443,272,2049,2498
1679,1,2481,2495,2497,2487,2490,2498,2499,2493
1680,1,2495,2039,2045,2497,2498,2049,2052,2499
1681,1,2483,2482,2500,2501,2485,2484,2502,2503
1682,1,2482,2486,2504,2500,2484,2487,2505,2502
1683,1,2501,2500,2506,2507,2503,2502,2508,2509
1684,1,2500,2504,2510,2506,2502,2505,2511,2508
1685,1,2485,2484,2502,2503,2492,2491,2512,2513
1686,1,2484,2487,2505,2502,2491,2493,2514,2512
1687,1,2503,2502,2508,2509,2513,2512,2515,2516
1688,1,2502,2505,2511,2508,2512,2514,2517,2515
1689,1,2486,2496,2518,2504,2487,2497,2519,2505
1690,1,2496,2043,2067,2518,2497,2045,2069,2519
1691,1,2504,2518,2520,2510,2505,2519,2521,2511
1692,1,2518,2067,2073,2520,2519,2069,2075,2521
1693,1,2487,2497,2519,2505,2493,2499,2522,2514
1694,1,2497,2045,2069,2519,2499,2052,2079,2522
1695,1,2505,2519,2521,2511,2514,2522,2523,2517
1696,1,2519,2069,2075,2521,2522,2079,2082,2523
1697,1,2436,2435,2488,2489,2464,2463,2524,2525
1698,1,2435,2437,2490,2488,2463,2465,2526,2524
1699,1,2489,2488,2491,2492,2525,2524,2527,2528
1700,1,2488,2490,2493,2491,2524,2526,2529,2527
1701,1,2464,2463,2524,2525,2470,2469,2530,2531
1702,1,2463,2465,2526,2524,2469,2471,2532,2530
1703,1,2525,2524,2527,2528,2531,2530,2533,2534
1704,1,2524,2526,2529,2527,2530,2532,2535,2533
1705,1,2437,2443,2498,2490,2465,2473,2536,2526
1706,1,2443,272,2049,2498,2473,310,2097,2536
1707,1,2490,2498,2499,2493,2526,2536,2537,2529
1708,1,2498,2049,2052,2499,2536,2097,2100,2537
1709,1,2465,2473,2536,2526,2471,2475,2538,2532
1710,1,2473,310,2097,2536,2475,316,2103,2538
1711,1,2526,2536,2537,2529,2532,2538,2539,2535
1712,1,2536,2097,2100,2537,2538,2103,2106,2539
1713,1,2492,2491,2512,2513,2528,2527,2540,2541
1714,1,2491,2493,2514,2512,2527,2529,2542,2540
1715,1,2513,2512,2515,2516,2541,2540,2543,2544
1716,1,2512,2514,2517,2515,2540,2542,2545,2543
1717,1,2528,2527,2540,2541,2534,2533,2546,2547
1718,1,2527,2529,2542,2540,2533,2535,2548,2546
1719,1,2541,2540,2543,2544,2547,2546,2549,2550
1720,1,2540,2542,2545,2543,2546,2548,2551,2549
1721,1,2493,2499,2522,2514,2529,2537,2552,2542
1722,1,2499,2052,2079,2522,2537,2100,2117,2552
1723,1,2514,2522,2523,2517,2542,2552,2553,2545
1724,1,2522,2079,2082,2523,2552,2117,2120,2553
1725,1,2529,2537,2552,2542,2535,2539,2554,2548
1726,1,2537,2100,2117,2552,2539,2106,2123,2554
1727,1,2542,2552,2553,2545,2548,2554,2555,2551
1728,1,2552,2117,2120,2553,2554,2123,2126,2555
1729,1,2556,2557,2558,2559,2560,2561,2562,2563
1730,1,2557,2564,2565,2558,2561,2566,2567,2562
1731,1,2559,2558,2568,2569,2563,2562,2570,2571
1732,1,2558,2565,2572,2568,2562,2567,2573,2570
1733,1,2560,2561,2562,2563,2574,2575,2576,2577
1734,1,2561,2566,2567,2562,2575,2578,2579,2576
1735,1,2563,2562,2570,2571,2577,2576,2580,2581
1736,1,2562,2567,2573,2570,2576,2579,2582,2580
1737,1,2564,2583,2584,2565,2566,2585,2586,2567
1738,1,2583,2427,2477,2584,2585,2429,2479,2586
1739,1,2565,2584,2587,2572,2567,2586,2588,2573
1740,1,2584,2477,2483,2587,2586,2479,2485,2588
1741,1,2566,2585,2586,2567,2578,2589,2590,2579
1742,1,2585,2429,2479,2586,2589,2436,2489,2590
1743,1,2567,2586,2588,2573,2579,2590,2591,2582
1744,1,2586,2479,2485,2588,2590,2489,2492,2591
1745,1,2569,2568,2592,2593,2571,2570,2594,2595
1746,1,2568,2572,2596,2592,2570,2573,2597,2594
1747,1,2593,2592,2598,2599,2595,2594,2600,2601
1748,1,2592,2596,2602,2598,2594,2597,2603,2600
1749,1,2571,2570,2594,2595,2581,2580,2604,2605
1750,1,2570,2573,2597,2594,2580,2582,2606,2604
1751,1,2595,2594,2600,2601,2605,2604,2607,2608
1752,1,2594,2597,2603,2600,2604,2606,2609,2607
1753,1,2572,2587,2610,2596,2573,2588,2611,2597
1754,1,2587,2483,2501,2610,2588,2485,2503,2611
1755,1,2596,2610,2612,2602,2597,2611,2613,2603
1756,1,2610,2501,2507,2612,2611,2503,2509,2613
1757,1,2573,2588,2611,2597,2582,2591,2614,2606
1758,1,2588,2485,2503,2611,2591,2492,2513,2614
1759,1,2597,2611,2613,2603,2606,2614,2615,2609
1760,1,2611,2503,2509,2613,2614,2513,2516,2615
1761,1,2574,2575,2576,2577,2616,2617,2618,2619
1762,1,2575,2578,2579,2576,2617,2620,2621,2618
1763,1,2577,2576,2580,2581,2619,2618,2622,2623
1764,1,2576,2579,2582,2580,2618,2621,2624,2622
1765,1,2616,2617,2618,2619,2625,2626,2627,2628
1766,1,2617,2620,2621,2618,2626,2629,2630,2627
1767,1,2619,2618,2622,2623,2628,2627,2631,2632
1768,1,2618,2621,2624,2622,2627,2630,2633,2631
1769,1,2578,2589,2590,2579,2620,2634,2635,2621
1770,1,2589,2436,2489,2590,2634,2464,2525,2635
1771,1,2579,2590,2591,2582,2621,2635,2636,2624
1772,1,2590,2489,2492,2591,2635,2525,2528,2636
1773,1,2620,2634,2635,2621,2629,2637,2638,2630
1774,1,2634,2464,2525,2635,2637,2470,2531,2638
1775,1,2621,2635,2636,2624,2630,2638,2639,2633
1776,1,2635,2525,2528,2636,2638,2531,2534,2639
1777,1,2581,2580,2604,2605,2623,2622,2640,2641
1778,1,2580,2582,2606,2604,2622,2624,2642,2640
1779,1,2605,2604,2607,2608,2641,2640,2643,2644
1780,1,2604,2606,2609,2607,2640,2642,2645,2643
1781,1,2623,2622,2640,2641,2632,2631,2646,2647
1782,1,2622,2624,2642,2640,2631,2633,2648,2646
1783,1,2641,2640,2643,2644,2647,2646,2649,2650
1784,1,2640,2642,2645,2643,2646,2648,2651,2649
1785,1,2582,2591,2614,2606,2624,2636,2652,2642
1786,1,2591,2492,2513,2614,2636,2528,2541,2652
1787,1,2606,2614,2615,2609,2642,2652,2653,2645
1788,1,2614,2513,2516,2615,2652,2541,2544,2653
1789,1,2624,2636,2652,2642,2633,2639,2654,2648
1790,1,2636,2528,2541,2652,2639,2534,2547,2654
1791,1,2642,2652,2653,2645,2648,2654,2655,2651
1792,1,2652,2541,2544,2653,2654,2547,2550,2655
1793,1,2656,2657,2658,2659,2660,2661,2662,2663
1794,1,2657,2664,2665,2658,2661,2666,2667,2662
1795,1,2659,2658,2668,2669,2663,2662,2670,2671
1796,1,2658,2665,2672,2668,2662,2667,2673,2670
1797,1,2660,2661,2662,2663,2674,2675,2676,2677
1798,1,2661,2666,2667,2662,2675,2678,2679,2676
1799,1,2663,2662,2670,2671,2677,2676,2680,2681
1800,1,2662,2667,2673,2670,2676,2679,2682,2680
1801,1,2664,2683,2684,2665,2666,2685,2686,2667
1802,1,2683,2347,2397,2684,2685,2349,2399,2686
1803,1,2665,2684,2687,2672,2667,2686,2688,2673
1804,1,2684,2397,2403,2687,2686,2399,2405,2688
1805,1,2666,2685,2686,2667,2678,2689,2690,2679
1806,1,2685,2349,2399,2686,2689,2356,2409,2690
1807,1,2667,2686,2688,2673,2679,2690,2691,2682
1808,1,2686,2399,2405,2688,2690,2409,2412,2691
1809,1,2669,2668,2692,2693,2671,2670,2694,2695
1810,1,2668,2672,2696,2692,2670,2673,2697,2694
1811,1,2693,2692,2557,2556,2695,2694,2561,2560
1812,1,2692,2696,2564,2557,2694,2697,2566,2561
1813,1,2671,2670,2694,2695,2681,2680,2698,2699
1814,1,2670,2673,2697,2694,2680,2682,2700,2698
1815,1,2695,2694,2561,2560,2699,2698,2575,2574
1816,1,2694,2697,2566,2561,2698,2700,2578,2575
1817,1,2672,2687,2701,2696,2673,2688,2702,2697
1818,1,2687,2403,2421,2701,2688,2405,2423,2702
1819,1,2696,2701,2583,2564,2697,2702,2585,2566
1820,1,2701,2421,2427,2583,2702,2423,2429,2585
1821,1,2673,2688,2702,2697,2682,2691,2703,2700
1822,1,2688,2405,2423,2702,2691,2412,2433,2703
1823,1,2697,2702,2585,2566,2700,2703,2589,2578
1824,1,2702,2423,2429,2585,2703,2433,2436,2589
1825,1,2674,2675,2676,2677,2704,2705,2706,2707
1826,1,2675,2678,2679,2676,2705,2708,2709,2706
1827,1,2677,2676,2680,2681,2707,2706,2710,2711
1828,1,2676,2679,2682,2680,2706,2709,2712,2710
1829,1,2704,2705,2706,2707,2713,2714,2715,2716
1830,1,2705,2708,2709,2706,2714,2717,2718,2715
1831,1,2707,2706,2710,2711,2716,2715,2719,2720
1832,1,2706,2709,2712,2710,2715,2718,2721,2719
1833,1,2678,2689,2690,2679,2708,2722,2723,2709
1834,1,2689,2356,2409,2690,2722,2384,2445,2723
1835,1,2679,2690,2691,2682,2709,2723,2724,2712
1836,1,2690,2409,2412,2691,2723,2445,2448,2724
1837,1,2708,2722,2723,2709,2717,2725,2726,2718
1838,1,2722,2384,2445,2723,2725,2390,2451,2726
1839,1,2709,2723,2724,2712,2718,2726,2727,2721
1840,1,2723,2445,2448,2724,2726,2451,2454,2727
1841,1,2681,2680,2698,2699,2711,2710,2728,2729
1842,1,2680,2682,2700,2698,2710,2712,2730,2728
1843,1,2699,2698,2575,2574,2729,2728,2617,2616
1844,1,2698,2700,2578,2575,2728,2730,2620,2617
1845,1,2711,2710,2728,2729,2720,2719,2731,2732
1846,1,2710,2712,2730,2728,2719,2721,2733,2731
1847,1,2729,2728,2617,2616,2732,2731,2626,2625
1848,1,2728,2730,2620,2617,2731,2733,2629,2626
1849,1,2682,2691,2703,2700,2712,2724,2734,2730
1850,1,2691,2412,2433,2703,2724,2448,2461,2734
1851,1,2700,2703,2589,2578,2730,2734,2634,2620
1852,1,2703,2433,2436,2589,2734,2461,2464,2634
1853,1,2712,2724,2734,2730,2721,2727,2735,2733
1854,1,2724,2448,2461,2734,2727,2454,2467,2735
1855,1,2730,2734,2634,2620,2733,2735,2637,2629
1856,1,2734,2461,2464,2634,2735,2467,2470,2637
1857,1,2736,2737,2738,2739,2740,2741,2742,2743
1858,1,2737,2744,2745,2738,2741,2746,2747,2742
[...]
4534,-3.034862,-6.198136,12.025650,0,0
4535,-2.798650,-8.998532,13.236710,0,0
4536,-2.798650,-7.567178,13.236710,0,0
4537,-3.218356,-7.582816,13.396480,0,0
4538,-3.306095,-8.998946,13.169280,0,0
4539,-2.798650,-6.135823,13.236710,0,0
4540,-3.130617,-6.167019,13.398750,0,0
4541,-3.654848,-7.598374,13.344620,0,0
4542,-3.771791,-8.999035,13.112860,0,0
4543,-3.537904,-6.198136,13.347710,0,0
4544,-2.359698,-4.704547,12.189340,0,0
4545,-2.577161,-4.751222,12.225960,0,0
4546,-2.951552,-4.797897,12.025590,0,0
4547,-2.798650,-4.704467,13.236710,0,0
4548,-3.042878,-4.751222,13.399850,0,0
4549,-3.420961,-4.797897,13.349170,0,0
4550,-3.599548,-7.613932,11.827400,0,0
4551,-3.664588,-8.998925,11.569940,0,0
4552,-3.534508,-6.229252,11.825710,0,0
4553,-4.213377,-7.629491,11.330550,0,0
4554,-4.213377,-8.998613,11.330550,0,0
4555,-4.213377,-6.260369,11.330550,0,0
4556,-4.204956,-7.613932,13.297310,0,0
4557,-4.302909,-8.998871,13.052540,0,0
4558,-4.107002,-6.229252,13.298310,0,0
4559,-4.882396,-7.629491,12.999900,0,0
4560,-4.882396,-8.998613,12.999900,0,0
4561,-4.882396,-6.260369,12.999900,0,0
4562,-3.469468,-4.844571,11.825230,0,0
4563,-4.213377,-4.891246,11.330550,0,0
4564,-4.009048,-4.844571,13.299060,0,0
4565,-4.882396,-4.891246,12.999900,0,0
4566,-2.948889,-8.998613,14.388230,0,0
4567,-2.948889,-7.567258,14.388230,0,0
4568,-3.320390,-7.582816,14.567720,0,0
4569,-3.392441,-8.998870,14.467480,0,0
4570,-2.948889,-6.135903,14.388230,0,0
4571,-3.248340,-6.167019,14.571680,0,0
4572,-3.760292,-7.598374,14.663770,0,0
4573,-3.853191,-8.998970,14.570560,0,0
4574,-3.667393,-6.198136,14.669780,0,0
4575,-2.598076,-8.998613,15.500000,0,0
4576,-2.598076,-7.567258,15.500000,0,0
4577,-3.040460,-7.582816,15.738950,0,0
4578,-3.043503,-8.998986,15.728290,0,0
4579,-2.598076,-6.135903,15.500000,0,0
4580,-3.037417,-6.167019,15.744610,0,0
4581,-3.480013,-7.598374,15.982920,0,0
4582,-3.485155,-8.998987,15.963750,0,0
4583,-3.474872,-6.198136,15.991840,0,0
4584,-2.948889,-4.704547,14.388230,0,0
4585,-3.176289,-4.751222,14.573740,0,0
4586,-3.574494,-4.797897,14.672750,0,0
4587,-2.598076,-4.704547,15.500000,0,0
4588,-3.034375,-4.751222,15.747630,0,0
4589,-3.469730,-4.797897,15.996340,0,0
4590,-4.279146,-7.613932,14.767220,0,0
4591,-4.354349,-8.998863,14.667640,0,0
4592,-4.203943,-6.229252,14.770910,0,0
4593,-4.923611,-7.629491,14.797840,0,0
4594,-4.923611,-8.998613,14.797840,0,0
4595,-4.923611,-6.260369,14.797840,0,0
4596,-3.908883,-7.613932,16.237140,0,0
4597,-3.912562,-8.998825,16.223820,0,0
4598,-3.905203,-6.229252,16.243500,0,0
4599,-4.331100,-7.629491,16.498310,0,0
4600,-4.331100,-8.998613,16.498310,0,0
4601,-4.331100,-6.260369,16.498310,0,0
4602,-4.128739,-4.844571,14.772890,0,0
4603,-4.923611,-4.891246,14.797840,0,0
4604,-3.901524,-4.844571,16.246720,0,0
4605,-4.331100,-4.891246,16.498310,0,0
4606,2.359697,-3.273192,12.189340,0,0
4607,2.359697,-4.704547,12.189340,0,0
4608,2.577649,-4.751222,12.227450,0,0
4609,2.514519,-3.335425,12.225970,0,0
4610,2.359697,-6.135903,12.189340,0,0
4611,2.640778,-6.167019,12.229730,0,0
4612,2.951893,-4.797897,12.027630,0,0
4613,2.868241,-3.397658,12.025510,0,0
4614,3.035544,-6.198136,12.030900,0,0
4615,2.798621,-3.273122,13.236500,0,0
4616,2.798621,-4.704476,13.236500,0,0
4617,3.043115,-4.751222,13.401470,0,0
4618,2.955138,-3.335425,13.400510,0,0
4619,2.798621,-6.135832,13.236500,0,0
4620,3.131092,-6.167019,13.403030,0,0
4621,3.420943,-4.797897,13.351380,0,0
4622,3.304017,-3.397658,13.350060,0,0
4623,3.537870,-6.198136,13.353380,0,0
4624,2.359697,-7.567258,12.189340,0,0
4625,2.703908,-7.582816,12.234150,0,0
4626,2.359697,-8.998613,12.189340,0,0
4627,2.767038,-8.998876,11.971290,0,0
4628,3.119196,-7.598374,12.036730,0,0
4629,3.202847,-8.999009,11.800950,0,0
4630,2.798621,-7.567187,13.236500,0,0
4631,3.219069,-7.582816,13.406290,0,0
4632,2.798621,-8.998543,13.236500,0,0
4633,3.307046,-8.998904,13.170070,0,0
4634,3.654796,-7.598374,13.356760,0,0
4635,3.771722,-8.998985,13.113980,0,0
4636,3.469862,-4.844571,11.826690,0,0
4637,3.404428,-3.459891,11.825040,0,0
4638,3.535295,-6.229252,11.829500,0,0
4639,4.213377,-4.891246,11.330550,0,0
4640,4.213377,-3.522124,11.330550,0,0
4641,4.213377,-6.260369,11.330550,0,0
4642,4.009045,-4.844571,13.300630,0,0
4643,3.911094,-3.459891,13.299610,0,0
4644,4.106995,-6.229252,13.302360,0,0
4645,4.882396,-4.891246,12.999900,0,0
4646,4.882396,-3.522124,12.999900,0,0
4647,4.882396,-6.260369,12.999900,0,0
4648,3.600729,-7.613932,11.835820,0,0
4649,3.666162,-8.998895,11.573310,0,0
4650,4.213377,-7.629491,11.330550,0,0
4651,4.213377,-8.998613,11.330550,0,0
4652,4.204945,-7.613932,13.306280,0,0
4653,4.302895,-8.998836,13.053380,0,0
4654,4.882396,-7.629491,12.999900,0,0
4655,4.882396,-8.998613,12.999900,0,0
4656,2.948889,-3.273192,14.388230,0,0
4657,2.948889,-4.704547,14.388230,0,0
4658,3.176639,-4.751222,14.575490,0,0
4659,3.104239,-3.335425,14.575040,0,0
4660,2.948889,-6.135903,14.388230,0,0
4661,3.249040,-6.167019,14.576320,0,0
4662,3.574834,-4.797897,14.675130,0,0
4663,3.481595,-3.397658,14.674610,0,0
4664,3.668073,-6.198136,14.675870,0,0
4665,2.598077,-3.273192,15.500000,0,0
4666,2.598077,-4.704547,15.500000,0,0
4667,3.030461,-4.751222,15.749520,0,0
4668,3.031333,-3.335425,15.749580,0,0
4669,2.598077,-6.135903,15.500000,0,0
4670,3.029589,-6.167019,15.749610,0,0
4671,3.465685,-4.797897,15.998880,0,0
4672,3.464589,-3.397658,15.999160,0,0
4673,3.466781,-6.198136,15.998350,0,0
4674,2.948889,-7.567258,14.388230,0,0
4675,3.321440,-7.582816,14.578430,0,0
4676,2.948889,-8.998613,14.388230,0,0
4677,3.393841,-8.998898,14.472790,0,0
4678,3.761312,-7.598374,14.676790,0,0
4679,3.854551,-8.999015,14.574710,0,0
4680,2.598077,-7.567258,15.500000,0,0
4681,3.028717,-7.582816,15.750570,0,0
4682,2.598077,-8.998613,15.500000,0,0
4683,3.027845,-8.999009,15.755840,0,0
4684,3.467878,-7.598374,15.996820,0,0
4685,3.468974,-8.999049,15.991160,0,0
4686,4.128122,-4.844571,14.774560,0,0
4687,4.053536,-3.459891,14.774170,0,0
4688,4.202708,-6.229252,14.775220,0,0
4689,4.923611,-4.891246,14.797840,0,0
4690,4.923611,-3.522124,14.797840,0,0
4691,4.923611,-6.260369,14.797840,0,0
4692,3.898258,-4.844571,16.248500,0,0
4693,3.897844,-3.459891,16.248730,0,0
4694,3.898672,-6.229252,16.248090,0,0
4695,4.331100,-4.891246,16.498310,0,0
4696,4.331100,-3.522124,16.498310,0,0
4697,4.331100,-6.260369,16.498310,0,0
4698,4.277294,-7.613932,14.776740,0,0
4699,4.351879,-8.998879,14.672970,0,0
4700,4.923611,-7.629491,14.797840,0,0
4701,4.923611,-8.998613,14.797840,0,0
4702,3.899086,-7.613932,16.247200,0,0
4703,3.899500,-8.998862,16.245570,0,0
4704,4.331100,-7.629491,16.498310,0,0
4705,4.331100,-8.998613,16.498310,0,0
4706,2.359697,3.270146,12.189340,0,0
4707,2.359697,1.634311,12.189340,0,0
4708,2.514519,1.665428,12.225970,0,0
4709,2.514519,3.332379,12.225970,0,0
4710,2.359697,-0.001523,12.189340,0,0
4711,2.514519,-0.001523,12.225970,0,0
4712,2.868241,1.696544,12.025510,0,0
4713,2.868241,3.394612,12.025510,0,0
4714,2.868241,-0.001523,12.025510,0,0
4715,2.798621,3.270216,13.236500,0,0
4716,2.798621,1.634381,13.236500,0,0
4717,2.955138,1.665428,13.400510,0,0
4718,2.955138,3.332379,13.400510,0,0
4719,2.798621,-0.001453,13.236500,0,0
4720,2.955138,-0.001523,13.400510,0,0
4721,3.304017,1.696544,13.350060,0,0
4722,3.304017,3.394612,13.350060,0,0
4723,3.304017,-0.001523,13.350060,0,0
4724,2.359697,-1.637358,12.189340,0,0
4725,2.514519,-1.668474,12.225970,0,0
4726,2.868241,-1.699591,12.025510,0,0
4727,2.798621,-1.637287,13.236500,0,0
4728,2.955138,-1.668474,13.400510,0,0
4729,3.304017,-1.699591,13.350060,0,0
4730,3.404428,1.727661,11.825040,0,0
4731,3.404428,3.456845,11.825040,0,0
4732,3.404428,-0.001523,11.825040,0,0
4733,4.213377,1.758778,11.330550,0,0
4734,4.213377,3.519078,11.330550,0,0
4735,4.213377,-0.001523,11.330550,0,0
4736,3.911094,1.727661,13.299610,0,0
4737,3.911094,3.456845,13.299610,0,0
4738,3.911094,-0.001523,13.299610,0,0
4739,4.882396,1.758778,12.999900,0,0
4740,4.882396,3.519078,12.999900,0,0
4741,4.882396,-0.001523,12.999900,0,0
4742,3.404428,-1.730707,11.825040,0,0
4743,4.213377,-1.761823,11.330550,0,0
4744,3.911094,-1.730707,13.299610,0,0
4745,4.882396,-1.761823,12.999900,0,0
4746,2.948889,3.270146,14.388230,0,0
4747,2.948889,1.634311,14.388230,0,0
4748,3.104239,1.665428,14.575040,0,0
4749,3.104239,3.332379,14.575040,0,0
4750,2.948889,-0.001523,14.388230,0,0
4751,3.104239,-0.001523,14.575040,0,0
4752,3.481595,1.696544,14.674610,0,0
4753,3.481595,3.394612,14.674610,0,0
4754,3.481595,-0.001523,14.674610,0,0
4755,2.598076,3.270146,15.500000,0,0
4756,2.598076,1.634311,15.500000,0,0
4757,3.031332,1.665428,15.749580,0,0
4758,3.031332,3.332379,15.749580,0,0
4759,2.598076,-0.001523,15.500000,0,0
4760,3.031332,-0.001523,15.749580,0,0
4761,3.464588,1.696544,15.999160,0,0
4762,3.464588,3.394612,15.999160,0,0
4763,3.464588,-0.001523,15.999160,0,0
4764,2.948889,-1.637358,14.388230,0,0
4765,3.104239,-1.668474,14.575040,0,0
4766,3.481595,-1.699591,14.674610,0,0
4767,2.598076,-1.637358,15.500000,0,0
4768,3.031333,-1.668474,15.749580,0,0
4769,3.464588,-1.699591,15.999160,0,0
4770,4.053536,1.727661,14.774170,0,0
4771,4.053536,3.456845,14.774170,0,0
4772,4.053536,-0.001523,14.774170,0,0
4773,4.923611,1.758778,14.797840,0,0
4774,4.923611,3.519078,14.797840,0,0
4775,4.923611,-0.001523,14.797840,0,0
4776,3.897844,1.727661,16.248730,0,0
4777,3.897844,3.456845,16.248730,0,0
4778,3.897844,-0.001523,16.248730,0,0
4779,4.331100,1.758778,16.498310,0,0
4780,4.331100,3.519078,16.498310,0,0
4781,4.331100,-0.001523,16.498310,0,0
4782,4.053536,-1.730707,14.774170,0,0
4783,4.923611,-1.761823,14.797840,0,0
4784,3.897844,-1.730707,16.248730,0,0
4785,4.331100,-1.761823,16.498310,0,0
4786,2.359697,8.995568,12.189340,0,0
4787,2.359697,7.564213,12.189340,0,0
4788,2.704411,7.579998,12.230060,0,0
4789,2.767709,8.996480,11.987100,0,0
4790,2.359697,6.132857,12.189340,0,0
4791,2.641114,6.164213,12.227800,0,0
4792,3.119047,7.595783,12.031040,0,0
4793,3.202648,8.996691,11.787080,0,0
4794,3.035445,6.195569,12.028020,0,0
4795,2.798621,8.995639,13.236500,0,0
4796,2.798621,7.564283,13.236500,0,0
4797,3.218130,7.579839,13.403980,0,0
4798,3.305793,8.996554,13.170520,0,0
4799,2.798621,6.132927,13.236500,0,0
4800,3.130466,6.164062,13.401930,0,0
4801,3.654041,7.595466,13.353680,0,0
4802,3.770715,8.996931,13.114730,0,0
4803,3.537366,6.195268,13.351750,0,0
4804,2.359697,4.701502,12.189340,0,0
4805,2.577817,4.748319,12.226670,0,0
4806,2.951843,4.795137,12.026480,0,0
4807,2.798621,4.701572,13.236500,0,0
4808,3.042802,4.748235,13.401030,0,0
4809,3.420692,4.794968,13.350720,0,0
4810,3.605164,7.611568,11.828720,0,0
4811,3.672076,8.996325,11.569330,0,0
4812,3.538252,6.226925,11.826760,0,0
4813,4.213375,7.627353,11.330550,0,0
4814,4.213373,8.995568,11.330540,0,0
4815,4.213376,6.258281,11.330550,0,0
4816,4.204770,7.611093,13.301720,0,0
4817,4.302662,8.996557,13.053770,0,0
4818,4.106878,6.226473,13.300660,0,0
4819,4.882396,7.626719,12.999900,0,0
4820,4.882395,8.995568,12.999890,0,0
4821,4.882396,6.257678,12.999900,0,0
4822,3.471340,4.841955,11.825710,0,0
4823,4.213377,4.888773,11.330550,0,0
4824,4.008986,4.841701,13.300040,0,0
4825,4.882396,4.888434,12.999900,0,0
4826,2.948889,8.995568,14.388230,0,0
4827,2.948889,7.564213,14.388230,0,0
4828,3.321037,7.579790,14.577900,0,0
4829,3.393304,8.996597,14.472610,0,0
4830,2.948889,6.132857,14.388230,0,0
4831,3.248771,6.164002,14.576060,0,0
4832,3.761218,7.595368,14.676310,0,0
4833,3.854426,8.996956,14.575280,0,0
4834,3.668011,6.195146,14.675480,0,0
4835,2.598076,8.995568,15.500000,0,0
4836,2.598076,7.564213,15.500000,0,0
4837,3.027654,7.579771,15.751810,0,0
4838,3.026428,8.996790,15.758120,0,0
4839,2.598076,6.132857,15.500000,0,0
4840,3.028880,6.163973,15.750190,0,0
4841,3.465353,7.595329,15.998950,0,0
4842,3.465609,8.996707,15.997040,0,0
4843,3.465098,6.195090,15.999200,0,0
4844,2.948889,4.701502,14.388230,0,0
4845,3.176505,4.748196,14.575390,0,0
4846,3.574803,4.794890,14.674960,0,0
4847,2.598076,4.701502,15.500000,0,0
4848,3.030106,4.748176,15.749740,0,0
4849,3.464843,4.794851,15.999190,0,0
4850,4.276862,7.610946,14.774730,0,0
4851,4.351304,8.996345,14.672930,0,0
4852,4.202420,6.226291,14.774570,0,0
4853,4.923612,7.626524,14.797840,0,0
4854,4.923612,8.995568,14.797840,0,0
4855,4.923611,6.257435,14.797840,0,0
4856,3.899292,7.610887,16.247730,0,0
4857,3.899775,8.996194,16.245190,0,0
4858,3.898809,6.226206,16.248480,0,0
4859,4.331100,7.626445,16.498310,0,0
4860,4.331100,8.995568,16.498310,0,0
4861,4.331100,6.257323,16.498310,0,0
4862,4.127978,4.841584,14.774360,0,0
4863,4.923611,4.888278,14.797840,0,0
4864,3.898327,4.841526,16.248680,0,0
4865,4.331100,4.888200,16.498310,0,0
4866,-1.500001,3.270146,16.598080,0,0
4867,-1.500001,4.701502,16.598080,0,0
4868,-1.515666,3.332379,17.028300,0,0
4869,-1.512313,4.748408,17.028300,0,0
4870,0.000000,3.270146,17.000000,0,0
4871,0.000000,4.701502,17.000000,0,0
4872,0.000000,3.332379,17.495940,0,0
4873,0.001827,4.748409,17.495940,0,0
4874,-1.500001,6.132857,16.598080,0,0
4875,-1.508960,6.164437,17.028300,0,0
4876,0.000000,6.132857,17.000000,0,0
4877,0.003653,6.164438,17.495940,0,0
4878,-1.732294,3.394612,17.458510,0,0
4879,-1.728912,4.795137,17.458510,0,0
4880,0.000000,3.394612,17.991880,0,0
4881,0.002339,4.795185,17.991880,0,0
4882,-1.725531,6.195663,17.458510,0,0
4883,0.004679,6.195758,17.991880,0,0
4884,1.500001,3.270146,16.598080,0,0
4885,1.500001,4.701502,16.598080,0,0
4886,1.515666,3.332379,17.028300,0,0
4887,1.515966,4.748404,17.028300,0,0
4888,1.500001,6.132857,16.598080,0,0
4889,1.516266,6.164429,17.028300,0,0
4890,1.732294,3.394612,17.458510,0,0
4891,1.733591,4.795148,17.458510,0,0
4892,1.734889,6.195684,17.458510,0,0
4893,-1.500001,7.564213,16.598080,0,0
4894,-1.505608,7.580466,17.028300,0,0
4895,0.000000,7.564213,17.000000,0,0
4896,0.005480,7.580468,17.495940,0,0
4897,-1.500001,8.995568,16.598080,0,0
4898,-1.707488,8.996495,16.952500,0,0
4899,0.000000,8.995568,17.000000,0,0
4900,-0.000190,8.996498,17.408360,0,0
4901,-1.722149,7.596188,17.458510,0,0
4902,0.007018,7.596331,17.991880,0,0
4903,-1.933480,8.996714,17.358430,0,0
4904,-0.000178,8.996904,17.863050,0,0
4905,1.500001,7.564213,16.598080,0,0
4906,1.516567,7.580454,17.028300,0,0
4907,1.500001,8.995568,16.598080,0,0
4908,1.708145,8.996479,16.951590,0,0
4909,1.736186,7.596220,17.458510,0,0
4910,1.934508,8.996756,17.357590,0,0
4911,-1.948922,3.456845,17.888730,0,0
4912,-1.947157,4.841700,17.888730,0,0
4913,0.000000,3.456845,18.487830,0,0
4914,0.001338,4.841740,18.487830,0,0
4915,-1.945391,6.226554,17.888730,0,0
4916,0.002675,6.226636,18.487830,0,0
4917,-2.495043,3.519078,18.318940,0,0
4918,-2.495043,4.888200,18.318940,0,0
4919,0.000000,3.519078,18.983770,0,0
4920,0.000000,4.888200,18.983770,0,0
4921,-2.495043,6.257323,18.318940,0,0
4922,0.000000,6.257323,18.983770,0,0
4923,1.948922,3.456845,17.888730,0,0
4924,1.949832,4.841710,17.888730,0,0
4925,1.950742,6.226574,17.888730,0,0
4926,2.495043,3.519078,18.318940,0,0
4927,2.495043,4.888200,18.318940,0,0
4928,2.495043,6.257323,18.318940,0,0
4929,-1.943626,7.611409,17.888730,0,0
4930,0.004013,7.611531,18.487830,0,0
4931,-2.207129,8.996264,17.809130,0,0
4932,0.000043,8.996426,18.397920,0,0
4933,-2.495043,7.626445,18.318940,0,0
4934,0.000000,7.626445,18.983770,0,0
4935,-2.495043,8.995568,18.318940,0,0
4936,0.000000,8.995568,18.983770,0,0
4937,1.951653,7.611439,17.888730,0,0
4938,2.208374,8.996304,17.808310,0,0
4939,2.495043,7.626445,18.318940,0,0
4940,2.495043,8.995568,18.318940,0,0
4941,-1.500001,-3.273192,16.598080,0,0
4942,-1.500001,-1.637358,16.598080,0,0
4943,-1.515666,-3.335425,17.028300,0,0
4944,-1.515666,-1.668474,17.028300,0,0
4945,0.000000,-3.273192,17.000000,0,0
4946,0.000000,-1.637358,17.000000,0,0
4947,0.000000,-3.335425,17.495940,0,0
4948,0.000000,-1.668474,17.495940,0,0
4949,-1.500001,-0.001523,16.598080,0,0
4950,-1.515666,-0.001523,17.028300,0,0
4951,0.000000,-0.001523,17.000000,0,0
4952,0.000000,-0.001523,17.495940,0,0
4953,-1.732294,-3.397658,17.458510,0,0
4954,-1.732294,-1.699591,17.458510,0,0
4955,0.000000,-3.397658,17.991880,0,0
4956,0.000000,-1.699591,17.991880,0,0
4957,-1.732294,-0.001523,17.458510,0,0
4958,0.000000,-0.001523,17.991880,0,0
4959,1.500001,-3.273192,16.598080,0,0
4960,1.500001,-1.637358,16.598080,0,0
4961,1.515667,-3.335425,17.028300,0,0
4962,1.515666,-1.668474,17.028300,0,0
4963,1.500001,-0.001523,16.598080,0,0
4964,1.515666,-0.001523,17.028300,0,0
4965,1.732294,-3.397658,17.458510,0,0
4966,1.732294,-1.699591,17.458510,0,0
4967,1.732294,-0.001523,17.458510,0,0
4968,-1.500001,1.634311,16.598080,0,0
4969,-1.515666,1.665428,17.028300,0,0
4970,0.000000,1.634311,17.000000,0,0
4971,0.000000,1.665428,17.495940,0,0
4972,-1.732294,1.696544,17.458510,0,0
4973,0.000000,1.696544,17.991880,0,0
4974,1.500001,1.634311,16.598080,0,0
4975,1.515666,1.665428,17.028300,0,0
4976,1.732294,1.696544,17.458510,0,0
4977,-1.948922,-3.459891,17.888730,0,0
4978,-1.948922,-1.730707,17.888730,0,0
4979,0.000000,-3.459891,18.487830,0,0
4980,0.000000,-1.730707,18.487830,0,0
4981,-1.948922,-0.001523,17.888730,0,0
4982,0.000000,-0.001523,18.487830,0,0
4983,-2.495043,-3.522124,18.318940,0,0
4984,-2.495043,-1.761823,18.318940,0,0
4985,0.000000,-3.522124,18.983770,0,0
4986,0.000000,-1.761823,18.983770,0,0
4987,-2.495043,-0.001523,18.318940,0,0
4988,0.000000,-0.001523,18.983770,0,0
4989,1.948922,-3.459891,17.888730,0,0
4990,1.948922,-1.730707,17.888730,0,0
4991,1.948922,-0.001523,17.888730,0,0
4992,2.495043,-3.522124,18.318940,0,0
4993,2.495043,-1.761823,18.318940,0,0
4994,2.495043,-0.001523,18.318940,0,0
4995,-1.948922,1.727661,17.888730,0,0
4996,0.000000,1.727661,18.487830,0,0
4997,-2.495043,1.758778,18.318940,0,0
4998,0.000000,1.758778,18.983770,0,0
4999,1.948922,1.727661,17.888730,0,0
5000,2.495043,1.758778,18.318940,0,0
5001,-1.500001,-8.998613,16.598080,0,0
5002,-1.500001,-7.567258,16.598080,0,0
5003,-1.710081,-8.998955,16.950500,0,0
5004,-1.523166,-7.583073,17.028300,0,0
5005,0.000000,-8.998613,17.000000,0,0
5006,0.000000,-7.567258,17.000000,0,0
5007,0.000184,-8.998881,17.408670,0,0
5008,-0.005872,-7.583017,17.495940,0,0
5009,-1.500001,-6.135903,16.598080,0,0
5010,-1.520666,-6.167190,17.028300,0,0
5011,0.000000,-6.135902,17.000000,0,0
5012,-0.003914,-6.167153,17.495940,0,0
5013,-1.937670,-8.999058,17.356110,0,0
5014,-1.743040,-7.598708,17.458510,0,0
5015,0.000153,-8.998994,17.862940,0,0
5016,-0.006068,-7.598660,17.991880,0,0
5017,-1.739458,-6.198358,17.458510,0,0
5018,-0.004045,-6.198326,17.991880,0,0
5019,1.500002,-8.998613,16.598080,0,0
5020,1.500002,-7.567258,16.598080,0,0
5021,1.708586,-8.998902,16.951700,0,0
5022,1.511423,-7.583033,17.028300,0,0
5023,1.500002,-6.135902,16.598080,0,0
5024,1.512837,-6.167164,17.028300,0,0
5025,1.934917,-8.998971,17.357270,0,0
5026,1.730905,-7.598643,17.458510,0,0
5027,1.731368,-6.198314,17.458510,0,0
5028,-1.500001,-4.704547,16.598080,0,0
5029,-1.518166,-4.751308,17.028300,0,0
5030,0.000000,-4.704547,17.000000,0,0
5031,-0.001957,-4.751289,17.495940,0,0
5032,-1.735876,-4.798008,17.458510,0,0
5033,-0.002022,-4.797992,17.991880,0,0
5034,1.500002,-4.704547,16.598080,0,0
5035,1.514252,-4.751294,17.028300,0,0
5036,1.731831,-4.797986,17.458510,0,0
5037,-2.210591,-8.998897,17.807530,0,0
5038,-1.956891,-7.614145,17.888730,0,0
5039,-0.000005,-8.998843,18.397780,0,0
5040,-0.004898,-7.614105,18.487830,0,0
5041,-1.954234,-6.229394,17.888730,0,0
5042,-0.003266,-6.229367,18.487830,0,0
5043,-2.495043,-8.998613,18.318940,0,0
5044,-2.495043,-7.629491,18.318940,0,0
5045,0.000000,-8.998613,18.983770,0,0
5046,0.000000,-7.629491,18.983770,0,0
5047,-2.495043,-6.260369,18.318940,0,0
5048,0.000000,-6.260369,18.983770,0,0
5049,2.208164,-8.998830,17.808190,0,0
5050,1.947094,-7.614095,17.888730,0,0
5051,1.947703,-6.229361,17.888730,0,0
5052,2.495043,-8.998613,18.318940,0,0
5053,2.495043,-7.629491,18.318940,0,0
5054,2.495043,-6.260369,18.318940,0,0
5055,-1.951578,-4.844642,17.888730,0,0
5056,-0.001633,-4.844629,18.487830,0,0
5057,-2.495043,-4.891246,18.318940,0,0
5058,0.000000,-4.891246,18.983770,0,0
5059,1.948313,-4.844626,17.888730,0,0
5060,2.495043,-4.891246,18.318940,0,0
